
 OpenBabel01042120593D

 97100  0  0  1  0  0  0  0  0999 V2000
    0.5701   -0.2067    0.2974 O   0  0  0  0  0  0  0  0  0  0  0  0
    1.9207    1.0452    1.7432 O   0  0  0  0  0  0  0  0  0  0  0  0
    2.7362   -2.1768    3.9954 O   0  0  0  0  0  0  0  0  0  0  0  0
    5.7619    0.1531    0.3239 O   0  0  0  0  0  0  0  0  0  0  0  0
    3.8128    1.0956   -0.6515 O   0  0  0  0  0  0  0  0  0  0  0  0
    9.3809   -0.4132    0.2366 O   0  0  0  0  0  0  0  0  0  0  0  0
    1.2952    0.4355    5.0210 O   0  0  0  0  0  0  0  0  0  0  0  0
    3.7620   -1.2445    5.9270 O   0  0  0  0  0  0  0  0  0  0  0  0
    2.0573   -2.6397   -1.3119 O   0  0  0  0  0  0  0  0  0  0  0  0
    4.2337   -1.3133   -2.1107 O   0  0  0  0  0  0  0  0  0  0  0  0
    7.9435   -1.4935   -2.1071 O   0  0  0  0  0  0  0  0  0  0  0  0
    2.9083   -3.7340    7.3017 O   0  0  0  0  0  0  0  0  0  0  0  0
    8.2855    0.9103    1.8444 O   0  0  0  0  0  0  0  0  0  0  0  0
    3.2281    3.6004    2.2979 O   0  0  0  0  0  0  0  0  0  0  0  0
    4.9165   -5.2512    6.1721 O   0  0  0  0  0  0  0  0  0  0  0  0
    5.4841   -2.9377    7.6099 O   0  0  0  0  0  0  0  0  0  0  0  0
    2.2552    3.2525   -0.2023 O   0  0  0  0  0  0  0  0  0  0  0  0
   10.2021   -2.8858    1.1753 O   0  0  0  0  0  0  0  0  0  0  0  0
    0.4389    2.4307   -1.1793 O   0  0  0  0  0  0  0  0  0  0  0  0
   -0.9306   -2.6579    5.1249 O   0  0  0  0  0  0  0  0  0  0  0  0
    6.0751    0.0477    4.0875 O   0  0  0  0  0  0  0  0  0  0  0  0
    5.5662   -1.9904    3.3091 O   0  0  0  0  0  0  0  0  0  0  0  0
    8.4890    2.5827   -3.8266 O   0  0  0  0  0  0  0  0  0  0  0  0
   -0.0968   -1.3045    3.5375 N   0  0  0  0  0  0  0  0  0  0  0  0
    8.3707    1.6004   -1.8194 N   0  0  0  0  0  0  0  0  0  0  0  0
    2.3545   -0.9734    3.3262 C   0  0  1  0  0  0  0  0  0  0  0  0
    1.0089   -1.1313    2.5697 C   0  0  2  0  0  0  0  0  0  0  0  0
    0.8293    0.1340    1.6623 C   0  0  2  0  0  0  0  0  0  0  0  0
    2.3709    0.3861    4.0693 C   0  0  1  0  0  0  0  0  0  0  0  0
    1.6323   -0.3152   -0.6799 C   0  0  2  0  0  0  0  0  0  0  0  0
    2.1792    1.5404    3.0657 C   0  0  1  0  0  0  0  0  0  0  0  0
    2.5071   -1.5674   -0.4707 C   0  0  2  0  0  0  0  0  0  0  0  0
    3.9962   -1.3324   -0.6936 C   0  0  2  0  0  0  0  0  0  0  0  0
    6.6939    0.0864   -0.7603 C   0  0  1  0  0  0  0  0  0  0  0  0
    4.3720   -0.0266    0.0183 C   0  0  1  0  0  0  0  0  0  0  0  0
    2.4280    0.9826   -1.0486 C   0  0  1  0  0  0  0  0  0  0  0  0
    7.7261    1.2278   -0.5514 C   0  0  1  0  0  0  0  0  0  0  0  0
    7.3716   -1.3063   -0.8078 C   0  0  2  0  0  0  0  0  0  0  0  0
    2.8138   -2.1881    5.4069 C   0  0  2  0  0  0  0  0  0  0  0  0
    8.4269   -1.4877    0.2967 C   0  0  1  0  0  0  0  0  0  0  0  0
    3.1322   -3.6277    5.8790 C   0  0  1  0  0  0  0  0  0  0  0  0
    8.7822    0.8525    0.5146 C   0  0  2  0  0  0  0  0  0  0  0  0
    3.4663    2.3805    2.9893 C   0  0  0  0  0  0  0  0  0  0  0  0
    4.6000   -3.9787    5.5908 C   0  0  1  0  0  0  0  0  0  0  0  0
    5.5416   -2.9157    6.1651 C   0  0  1  0  0  0  0  0  0  0  0  0
    5.1421   -1.5219    5.6906 C   0  0  1  0  0  0  0  0  0  0  0  0
    1.5910    2.2484   -0.8179 C   0  0  0  0  0  0  0  0  0  0  0  0
    9.2163   -2.7960    0.1449 C   0  0  0  0  0  0  0  0  0  0  0  0
   -0.5911   -2.5098    3.9526 C   0  0  0  0  0  0  0  0  0  0  0  0
    5.6308   -1.2237    4.2607 C   0  0  0  0  0  0  0  0  0  0  0  0
    7.9675    2.5444   -2.7155 C   0  0  0  0  0  0  0  0  0  0  0  0
   -0.7045   -3.6152    2.9404 C   0  0  0  0  0  0  0  0  0  0  0  0
    6.9149    3.5269   -2.2869 C   0  0  0  0  0  0  0  0  0  0  0  0
    3.1315   -0.9130    2.5659 H   0  0  0  0  0  0  0  0  0  0  0  0
    1.0212   -2.0417    1.9700 H   0  0  0  0  0  0  0  0  0  0  0  0
   -0.0708    0.6697    1.9885 H   0  0  0  0  0  0  0  0  0  0  0  0
    3.2928    0.5314    4.6310 H   0  0  0  0  0  0  0  0  0  0  0  0
    1.0411   -0.5116   -1.5863 H   0  0  0  0  0  0  0  0  0  0  0  0
    1.3429    2.1913    3.3490 H   0  0  0  0  0  0  0  0  0  0  0  0
    2.3944   -1.9430    0.5413 H   0  0  0  0  0  0  0  0  0  0  0  0
    4.5508   -2.1838   -0.2899 H   0  0  0  0  0  0  0  0  0  0  0  0
    6.1786    0.2862   -1.7048 H   0  0  0  0  0  0  0  0  0  0  0  0
    3.9323   -0.0404    1.0076 H   0  0  0  0  0  0  0  0  0  0  0  0
    2.5201    0.9645   -2.1445 H   0  0  0  0  0  0  0  0  0  0  0  0
    7.1880    2.1059   -0.1762 H   0  0  0  0  0  0  0  0  0  0  0  0
    6.6295   -2.0972   -0.6828 H   0  0  0  0  0  0  0  0  0  0  0  0
    1.8365   -1.9150    5.8170 H   0  0  0  0  0  0  0  0  0  0  0  0
    7.9619   -1.4866    1.2901 H   0  0  0  0  0  0  0  0  0  0  0  0
   -0.0659   -0.6468    4.3185 H   0  0  0  0  0  0  0  0  0  0  0  0
    2.4882   -4.3652    5.3850 H   0  0  0  0  0  0  0  0  0  0  0  0
    9.5963    1.5844    0.4708 H   0  0  0  0  0  0  0  0  0  0  0  0
    3.8261    2.6422    3.9887 H   0  0  0  0  0  0  0  0  0  0  0  0
    4.2633    1.8480    2.4604 H   0  0  0  0  0  0  0  0  0  0  0  0
    4.7555   -4.0742    4.5119 H   0  0  0  0  0  0  0  0  0  0  0  0
    6.5811   -3.1416    5.9047 H   0  0  0  0  0  0  0  0  0  0  0  0
    5.6739   -0.8146    6.3404 H   0  0  0  0  0  0  0  0  0  0  0  0
    1.4796    1.1629    5.6453 H   0  0  0  0  0  0  0  0  0  0  0  0
    9.0781    0.9826   -2.2012 H   0  0  0  0  0  0  0  0  0  0  0  0
    2.6468   -2.6415   -2.0957 H   0  0  0  0  0  0  0  0  0  0  0  0
    8.5596   -3.6672    0.2217 H   0  0  0  0  0  0  0  0  0  0  0  0
    9.7525   -2.8399   -0.8082 H   0  0  0  0  0  0  0  0  0  0  0  0
    4.3545   -0.3898   -2.3993 H   0  0  0  0  0  0  0  0  0  0  0  0
    8.8629   -1.1750   -2.0925 H   0  0  0  0  0  0  0  0  0  0  0  0
    1.9427   -3.8434    7.4129 H   0  0  0  0  0  0  0  0  0  0  0  0
    7.3527    0.6245    1.8395 H   0  0  0  0  0  0  0  0  0  0  0  0
    3.0568    3.3574    1.3627 H   0  0  0  0  0  0  0  0  0  0  0  0
    4.8552   -5.1204    7.1397 H   0  0  0  0  0  0  0  0  0  0  0  0
    4.5339   -2.9720    7.8613 H   0  0  0  0  0  0  0  0  0  0  0  0
   -1.0406   -3.2201    1.9777 H   0  0  0  0  0  0  0  0  0  0  0  0
    0.2582   -4.1192    2.8295 H   0  0  0  0  0  0  0  0  0  0  0  0
   -1.4498   -4.3393    3.2839 H   0  0  0  0  0  0  0  0  0  0  0  0
    1.5898    3.9772   -0.1811 H   0  0  0  0  0  0  0  0  0  0  0  0
   10.6600   -2.0225    1.1798 H   0  0  0  0  0  0  0  0  0  0  0  0
    5.9866    3.0073   -2.0378 H   0  0  0  0  0  0  0  0  0  0  0  0
    7.2737    4.1002   -1.4275 H   0  0  0  0  0  0  0  0  0  0  0  0
    6.7151    4.2232   -3.1063 H   0  0  0  0  0  0  0  0  0  0  0  0
    6.1820    0.5613    4.9144 H   0  0  0  0  0  0  0  0  0  0  0  0
  1 28  1  0  0  0  0
  1 30  1  0  0  0  0
  2 28  1  0  0  0  0
  2 31  1  0  0  0  0
  3 26  1  0  0  0  0
  3 39  1  0  0  0  0
  4 34  1  0  0  0  0
  4 35  1  0  0  0  0
  5 35  1  0  0  0  0
  5 36  1  0  0  0  0
  6 40  1  0  0  0  0
  6 42  1  0  0  0  0
  7 29  1  0  0  0  0
  7 77  1  0  0  0  0
  8 39  1  0  0  0  0
  8 46  1  0  0  0  0
  9 32  1  0  0  0  0
  9 79  1  0  0  0  0
 10 33  1  0  0  0  0
 10 82  1  0  0  0  0
 11 38  1  0  0  0  0
 11 83  1  0  0  0  0
 12 41  1  0  0  0  0
 12 84  1  0  0  0  0
 13 42  1  0  0  0  0
 13 85  1  0  0  0  0
 14 43  1  0  0  0  0
 14 86  1  0  0  0  0
 15 44  1  0  0  0  0
 15 87  1  0  0  0  0
 16 45  1  0  0  0  0
 16 88  1  0  0  0  0
 17 47  1  0  0  0  0
 17 92  1  0  0  0  0
 18 48  1  0  0  0  0
 18 93  1  0  0  0  0
 19 47  2  0  0  0  0
 20 49  2  0  0  0  0
 21 50  1  0  0  0  0
 21 97  1  0  0  0  0
 22 50  2  0  0  0  0
 23 51  2  0  0  0  0
 24 27  1  0  0  0  0
 24 49  1  0  0  0  0
 24 69  1  0  0  0  0
 25 37  1  0  0  0  0
 25 51  1  0  0  0  0
 25 78  1  0  0  0  0
 26 27  1  6  0  0  0
 26 54  1  0  0  0  0
 27 28  1  6  0  0  0
 27 55  1  0  0  0  0
 28 56  1  1  0  0  0
 29 26  1  6  0  0  0
 29 57  1  0  0  0  0
 30 32  1  1  0  0  0
 30 58  1  0  0  0  0
 31 29  1  1  0  0  0
 31 43  1  0  0  0  0
 31 59  1  0  0  0  0
 32 33  1  6  0  0  0
 32 60  1  0  0  0  0
 33 35  1  1  0  0  0
 33 61  1  0  0  0  0
 34 37  1  1  0  0  0
 34 62  1  0  0  0  0
 35 63  1  1  0  0  0
 36 30  1  1  0  0  0
 36 47  1  0  0  0  0
 36 64  1  0  0  0  0
 37 42  1  1  0  0  0
 37 65  1  0  0  0  0
 38 34  1  1  0  0  0
 38 66  1  0  0  0  0
 39 41  1  1  0  0  0
 39 67  1  0  0  0  0
 40 38  1  6  0  0  0
 40 48  1  0  0  0  0
 40 68  1  0  0  0  0
 41 44  1  6  0  0  0
 41 70  1  0  0  0  0
 42 71  1  6  0  0  0
 43 72  1  0  0  0  0
 43 73  1  0  0  0  0
 44 45  1  1  0  0  0
 44 74  1  0  0  0  0
 45 46  1  6  0  0  0
 45 75  1  0  0  0  0
 46 50  1  0  0  0  0
 46 76  1  1  0  0  0
 48 80  1  0  0  0  0
 48 81  1  0  0  0  0
 49 52  1  0  0  0  0
 51 53  1  0  0  0  0
 52 89  1  0  0  0  0
 52 90  1  0  0  0  0
 52 91  1  0  0  0  0
 53 94  1  0  0  0  0
 53 95  1  0  0  0  0
 53 96  1  0  0  0  0
M  END
