404772124
     RDKit          3D

 69 73  0  0  1  0  0  0  0  0999 V2000
   -6.3596    2.1509    3.3851 C   0  0  0  0  0  0  0  0  0  0  0  0
   -5.5780    1.5368    2.2717 C   0  0  0  0  0  0  0  0  0  0  0  0
   -5.2698    2.2241    1.2478 O   0  0  0  0  0  0  0  0  0  0  0  0
   -5.1541    0.2162    2.2891 O   0  0  0  0  0  0  0  0  0  0  0  0
   -4.4176   -0.3915    1.2583 C   0  0  0  0  0  0  0  0  0  0  0  0
   -3.1207    0.2957    1.0300 C   0  0  0  0  0  0  0  0  0  0  0  0
   -2.8682    1.2529    1.7293 O   0  0  0  0  0  0  0  0  0  0  0  0
   -2.1253   -0.1015    0.0197 C   0  0  1  0  0  0  0  0  0  0  0  0
   -2.1183    1.0481   -0.9993 C   0  0  1  0  0  0  0  0  0  0  0  0
   -0.8681    1.8138   -0.5229 C   0  0  0  0  0  0  0  0  0  0  0  0
    0.0329    0.6742   -0.3889 C   0  0  2  0  0  0  0  0  0  0  0  0
   -0.7514   -0.2531    0.5481 C   0  0  2  0  0  0  0  0  0  0  0  0
   -0.1328   -1.6091    0.2890 C   0  0  0  0  0  0  0  0  0  0  0  0
    1.3445   -1.6579    0.4097 C   0  0  1  0  0  0  0  0  0  0  0  0
    2.0748   -0.5282   -0.2221 C   0  0  1  0  0  0  0  0  0  0  0  0
    1.3842    0.7972    0.1426 C   0  0  1  0  0  0  0  0  0  0  0  0
    2.1060    1.9722   -0.4813 C   0  0  0  0  0  0  0  0  0  0  0  0
    3.4071    2.0674    0.2864 C   0  0  1  0  0  0  0  0  0  0  0  0
    4.1626    0.8194   -0.0501 C   0  0  0  0  0  0  0  0  0  0  0  0
    5.4424    0.9673   -0.3104 C   0  0  0  0  0  0  0  0  0  0  0  0
    6.2614   -0.1840   -0.6475 C   0  0  0  0  0  0  0  0  0  0  0  0
    7.4763   -0.2013   -0.3345 O   0  0  0  0  0  0  0  0  0  0  0  0
    5.5860   -1.2910   -1.3587 C   0  0  0  0  0  0  0  0  0  0  0  0
    4.1227   -1.2716   -1.2813 C   0  0  0  0  0  0  0  0  0  0  0  0
    3.5462   -0.5093   -0.0939 C   0  0  2  0  0  0  0  0  0  0  0  0
    4.0159   -1.3231    1.1224 C   0  0  0  0  0  0  0  0  0  0  0  0
    4.0496    3.1938   -0.1115 F   0  0  0  0  0  0  0  0  0  0  0  0
    1.6423   -1.9259    1.7271 O   0  0  0  0  0  0  0  0  0  0  0  0
   -0.6549    0.1629    1.9721 C   0  0  0  0  0  0  0  0  0  0  0  0
   -1.8157    0.4052   -2.1635 O   0  0  0  0  0  0  0  0  0  0  0  0
   -2.6062   -0.7556   -2.0705 C   0  0  0  0  0  0  0  0  0  0  0  0
   -2.5465   -1.1686   -0.7647 O   0  0  0  0  0  0  0  0  0  0  0  0
   -3.9976   -0.3528   -2.5060 C   0  0  0  0  0  0  0  0  0  0  0  0
   -2.1178   -1.7937   -3.0589 C   0  0  0  0  0  0  0  0  0  0  0  0
   -6.7549    1.3746    4.0365 H   0  0  0  0  0  0  0  0  0  0  0  0
   -7.1061    2.8763    3.0125 H   0  0  0  0  0  0  0  0  0  0  0  0
   -5.6303    2.7594    3.9873 H   0  0  0  0  0  0  0  0  0  0  0  0
   -4.2903   -1.4567    1.5310 H   0  0  0  0  0  0  0  0  0  0  0  0
   -5.0762   -0.3591    0.3444 H   0  0  0  0  0  0  0  0  0  0  0  0
   -3.0130    1.6464   -0.9744 H   0  0  0  0  0  0  0  0  0  0  0  0
   -0.5402    2.4863   -1.3322 H   0  0  0  0  0  0  0  0  0  0  0  0
   -1.0944    2.3760    0.3912 H   0  0  0  0  0  0  0  0  0  0  0  0
    0.0503    0.1312   -1.3713 H   0  0  0  0  0  0  0  0  0  0  0  0
   -0.4454   -1.9754   -0.6974 H   0  0  0  0  0  0  0  0  0  0  0  0
   -0.5875   -2.3041    1.0377 H   0  0  0  0  0  0  0  0  0  0  0  0
    1.6706   -2.5845   -0.1579 H   0  0  0  0  0  0  0  0  0  0  0  0
    1.8306   -0.6142   -1.3299 H   0  0  0  0  0  0  0  0  0  0  0  0
    1.5010    0.8998    1.2308 H   0  0  0  0  0  0  0  0  0  0  0  0
    2.2707    1.7187   -1.5477 H   0  0  0  0  0  0  0  0  0  0  0  0
    1.4692    2.8543   -0.3442 H   0  0  0  0  0  0  0  0  0  0  0  0
    3.1634    2.1251    1.3500 H   0  0  0  0  0  0  0  0  0  0  0  0
    5.8873    1.9809   -0.2686 H   0  0  0  0  0  0  0  0  0  0  0  0
    5.9580   -2.2419   -0.8766 H   0  0  0  0  0  0  0  0  0  0  0  0
    5.9664   -1.3007   -2.4013 H   0  0  0  0  0  0  0  0  0  0  0  0
    3.6771   -2.2969   -1.2859 H   0  0  0  0  0  0  0  0  0  0  0  0
    3.7043   -0.7698   -2.1931 H   0  0  0  0  0  0  0  0  0  0  0  0
    5.1347   -1.2966    1.1995 H   0  0  0  0  0  0  0  0  0  0  0  0
    3.6752   -0.8779    2.0701 H   0  0  0  0  0  0  0  0  0  0  0  0
    3.7830   -2.3847    0.9721 H   0  0  0  0  0  0  0  0  0  0  0  0
    1.3892   -2.8804    1.9009 H   0  0  0  0  0  0  0  0  0  0  0  0
   -1.4383   -0.3356    2.5745 H   0  0  0  0  0  0  0  0  0  0  0  0
    0.3031   -0.1864    2.4636 H   0  0  0  0  0  0  0  0  0  0  0  0
   -0.6009    1.2695    2.1254 H   0  0  0  0  0  0  0  0  0  0  0  0
   -3.9308    0.1172   -3.5090 H   0  0  0  0  0  0  0  0  0  0  0  0
   -4.6812   -1.2020   -2.5774 H   0  0  0  0  0  0  0  0  0  0  0  0
   -4.4449    0.4111   -1.8391 H   0  0  0  0  0  0  0  0  0  0  0  0
   -2.8566   -2.0065   -3.8552 H   0  0  0  0  0  0  0  0  0  0  0  0
   -1.1440   -1.4633   -3.4952 H   0  0  0  0  0  0  0  0  0  0  0  0
   -1.9515   -2.7699   -2.5334 H   0  0  0  0  0  0  0  0  0  0  0  0
  1  2  1  0
  2  3  2  0
  2  4  1  0
  4  5  1  0
  5  6  1  0
  6  7  2  0
  8  6  1  1
  8  9  1  0
  9 10  1  0
 11 10  1  0
 11 12  1  0
  8 12  1  0
 12 13  1  0
 13 14  1  0
 15 14  1  0
 15 16  1  0
 11 16  1  0
 16 17  1  0
 17 18  1  0
 18 19  1  0
 19 20  2  0
 20 21  1  0
 21 22  2  0
 21 23  1  0
 23 24  1  0
 24 25  1  0
 15 25  1  0
 19 25  1  0
 25 26  1  1
 18 27  1  0
 14 28  1  0
 12 29  1  1
  9 30  1  0
 30 31  1  0
 31 32  1  0
  8 32  1  0
 31 33  1  0
 31 34  1  0
  1 35  1  0
  1 36  1  0
  1 37  1  0
  5 38  1  0
  5 39  1  0
  9 40  1  6
 10 41  1  0
 10 42  1  0
 11 43  1  6
 13 44  1  0
 13 45  1  0
 14 46  1  6
 15 47  1  6
 16 48  1  1
 17 49  1  0
 17 50  1  0
 18 51  1  1
 20 52  1  0
 23 53  1  0
 23 54  1  0
 24 55  1  0
 24 56  1  0
 26 57  1  0
 26 58  1  0
 26 59  1  0
 28 60  1  0
 29 61  1  0
 29 62  1  0
 29 63  1  0
 33 64  1  0
 33 65  1  0
 33 66  1  0
 34 67  1  0
 34 68  1  0
 34 69  1  0
M  END

