404770955
     RDKit          3D

 29 28  0  0  0  0  0  0  0  0999 V2000
    3.6692   -0.2281   -0.8849 C   0  0  0  0  0  0  0  0  0  0  0  0
    2.3945    0.0426   -0.0900 C   0  0  0  0  0  0  0  0  0  0  0  0
    1.1930   -0.5237   -0.7871 C   0  0  0  0  0  0  0  0  0  0  0  0
   -0.0958   -0.2917   -0.0468 C   0  0  0  0  0  0  0  0  0  0  0  0
   -0.0963   -0.9044    1.3245 C   0  0  0  0  0  0  0  0  0  0  0  0
   -0.3873    1.1756   -0.0464 C   0  0  0  0  0  0  0  0  0  0  0  0
   -1.5956    1.4839    0.6342 O   0  0  0  0  0  0  0  0  0  0  0  0
   -1.9349    2.8303    0.6771 N   0  0  0  0  0  4  0  0  0  0  0  0
   -3.1132    3.2010    0.5001 O   0  0  0  0  0  0  0  0  0  0  0  0
   -1.0008    3.8126    0.9141 O   0  0  0  0  0  1  0  0  0  0  0  0
   -1.2125   -1.0003   -0.8258 C   0  0  0  0  0  0  0  0  0  0  0  0
   -2.4182   -0.7903   -0.1441 O   0  0  0  0  0  0  0  0  0  0  0  0
   -3.6263   -1.2668   -0.5337 N   0  0  0  0  0  4  0  0  0  0  0  0
   -4.5858   -0.4885   -0.6514 O   0  0  0  0  0  0  0  0  0  0  0  0
   -3.8081   -2.5947   -0.8005 O   0  0  0  0  0  1  0  0  0  0  0  0
    3.7641    0.4971   -1.7123 H   0  0  0  0  0  0  0  0  0  0  0  0
    3.6474   -1.2563   -1.3056 H   0  0  0  0  0  0  0  0  0  0  0  0
    4.5421   -0.1082   -0.2204 H   0  0  0  0  0  0  0  0  0  0  0  0
    2.5028   -0.4621    0.8724 H   0  0  0  0  0  0  0  0  0  0  0  0
    2.3052    1.1296   -0.0367 H   0  0  0  0  0  0  0  0  0  0  0  0
    1.1716   -0.0830   -1.8050 H   0  0  0  0  0  0  0  0  0  0  0  0
    1.3040   -1.6357   -0.9599 H   0  0  0  0  0  0  0  0  0  0  0  0
    0.0812   -0.0683    2.0507 H   0  0  0  0  0  0  0  0  0  0  0  0
   -1.0535   -1.3995    1.5755 H   0  0  0  0  0  0  0  0  0  0  0  0
    0.7070   -1.6359    1.4828 H   0  0  0  0  0  0  0  0  0  0  0  0
   -0.5201    1.4771   -1.1227 H   0  0  0  0  0  0  0  0  0  0  0  0
    0.4371    1.7682    0.3880 H   0  0  0  0  0  0  0  0  0  0  0  0
   -1.2987   -0.5957   -1.8564 H   0  0  0  0  0  0  0  0  0  0  0  0
   -0.9721   -2.0848   -0.9471 H   0  0  0  0  0  0  0  0  0  0  0  0
  1  2  1  0
  2  3  1  0
  3  4  1  0
  4  5  1  0
  4  6  1  0
  6  7  1  0
  7  8  1  0
  8  9  2  0
  8 10  1  0
  4 11  1  0
 11 12  1  0
 12 13  1  0
 13 14  2  0
 13 15  1  0
  1 16  1  0
  1 17  1  0
  1 18  1  0
  2 19  1  0
  2 20  1  0
  3 21  1  0
  3 22  1  0
  5 23  1  0
  5 24  1  0
  5 25  1  0
  6 26  1  0
  6 27  1  0
 11 28  1  0
 11 29  1  0
M  CHG  4   8   1  10  -1  13   1  15  -1
M  END

