404770158
     RDKit          3D

 86 91  0  0  1  0  0  0  0  0999 V2000
    9.4535   -3.1380   -1.5362 C   0  0  0  0  0  0  0  0  0  0  0  0
    9.4184   -2.1915   -0.5044 O   0  0  0  0  0  0  0  0  0  0  0  0
    8.5002   -1.1735   -0.5359 C   0  0  0  0  0  0  0  0  0  0  0  0
    7.5682   -0.9925   -1.5347 C   0  0  0  0  0  0  0  0  0  0  0  0
    6.6711    0.0527   -1.5113 C   0  0  0  0  0  0  0  0  0  0  0  0
    6.6928    0.9370   -0.4834 C   0  0  0  0  0  0  0  0  0  0  0  0
    7.6229    0.7701    0.5293 C   0  0  0  0  0  0  0  0  0  0  0  0
    8.5206   -0.2620    0.5208 C   0  0  0  0  0  0  0  0  0  0  0  0
    9.4640   -0.4263    1.5531 O   0  0  0  0  0  0  0  0  0  0  0  0
    9.5486    0.4469    2.6514 C   0  0  0  0  0  0  0  0  0  0  0  0
    5.7317    2.0857   -0.4383 C   0  0  0  0  0  0  0  0  0  0  0  0
    4.7244    2.0142   -1.3999 N   0  0  0  0  0  0  0  0  0  0  0  0
    4.4477    0.8259   -2.0760 C   0  0  0  0  0  0  0  0  0  0  0  0
    5.7116    0.1783   -2.6141 C   0  0  0  0  0  0  0  0  0  0  0  0
    3.8452    3.0736   -1.6153 C   0  0  0  0  0  0  0  0  0  0  0  0
    2.8671    3.3579   -0.4973 C   0  0  0  0  0  0  0  0  0  0  0  0
    1.9512    2.2374   -0.2194 C   0  0  0  0  0  0  0  0  0  0  0  0
    2.1997    1.2084    0.6449 C   0  0  0  0  0  0  0  0  0  0  0  0
    1.2629    0.2176    0.8410 C   0  0  0  0  0  0  0  0  0  0  0  0
    0.0215    0.1986    0.1838 C   0  0  0  0  0  0  0  0  0  0  0  0
   -0.2163    1.2260   -0.6755 C   0  0  0  0  0  0  0  0  0  0  0  0
    0.7313    2.2167   -0.8662 C   0  0  0  0  0  0  0  0  0  0  0  0
   -0.8166   -0.8925    0.4708 N   0  0  0  0  0  0  0  0  0  0  0  0
   -2.2224   -0.8014    0.4125 C   0  0  0  0  0  0  0  0  0  0  0  0
   -2.6424    0.3655    0.0915 O   0  0  0  0  0  0  0  0  0  0  0  0
   -3.1302   -1.8987    0.6853 C   0  0  0  0  0  0  0  0  0  0  0  0
   -2.5398   -3.1393    0.8798 C   0  0  0  0  0  0  0  0  0  0  0  0
   -3.2868   -4.2978    1.0897 C   0  0  0  0  0  0  0  0  0  0  0  0
   -4.6458   -4.1847    1.0998 C   0  0  0  0  0  0  0  0  0  0  0  0
   -5.2224   -2.9464    0.9061 C   0  0  0  0  0  0  0  0  0  0  0  0
   -4.4953   -1.7704    0.6946 C   0  0  0  0  0  0  0  0  0  0  0  0
   -5.1291   -0.5201    0.5724 N   0  0  0  0  0  0  0  0  0  0  0  0
   -6.5085   -0.3432    0.3902 C   0  0  0  0  0  0  0  0  0  0  0  0
   -7.3538   -1.2680    0.2990 O   0  0  0  0  0  0  0  0  0  0  0  0
   -7.0202    1.0558    0.2969 C   0  0  0  0  0  0  0  0  0  0  0  0
   -8.1932    1.3232   -0.3710 C   0  0  0  0  0  0  0  0  0  0  0  0
   -8.6325    2.6287   -0.4119 C   0  0  0  0  0  0  0  0  0  0  0  0
   -9.8030    2.9902   -1.0616 C   0  0  0  0  0  0  0  0  0  0  0  0
  -10.2197    4.3119   -1.0851 C   0  0  0  0  0  0  0  0  0  0  0  0
   -9.4987    5.3112   -0.4722 C   0  0  0  0  0  0  0  0  0  0  0  0
   -8.3335    4.9616    0.1758 C   0  0  0  0  0  0  0  0  0  0  0  0
   -7.9171    3.6388    0.1987 C   0  0  0  0  0  0  0  0  0  0  0  0
   -6.7921    3.3100    0.8268 N   0  0  0  0  0  0  0  0  0  0  0  0
   -6.3141    2.0484    0.8995 C   0  0  0  0  0  0  0  0  0  0  0  0
   -5.4382   -5.3195    1.3061 O   0  0  0  0  0  0  0  0  0  0  0  0
   -6.8632   -5.1674    1.3120 C   0  0  0  0  0  0  0  0  0  0  0  0
   -2.6956   -5.5325    1.2838 O   0  0  0  0  0  0  0  0  0  0  0  0
   -1.2888   -5.6470    1.2696 C   0  0  0  0  0  0  0  0  0  0  0  0
    8.6849   -3.9398   -1.4025 H   0  0  0  0  0  0  0  0  0  0  0  0
   10.4551   -3.6644   -1.5021 H   0  0  0  0  0  0  0  0  0  0  0  0
    9.2951   -2.7142   -2.5504 H   0  0  0  0  0  0  0  0  0  0  0  0
    7.5435   -1.7070   -2.3734 H   0  0  0  0  0  0  0  0  0  0  0  0
    7.6049    1.4989    1.3303 H   0  0  0  0  0  0  0  0  0  0  0  0
   10.1863    1.3324    2.3716 H   0  0  0  0  0  0  0  0  0  0  0  0
    8.5931    0.8645    2.9888 H   0  0  0  0  0  0  0  0  0  0  0  0
   10.0750   -0.0217    3.5136 H   0  0  0  0  0  0  0  0  0  0  0  0
    5.2968    2.0509    0.5901 H   0  0  0  0  0  0  0  0  0  0  0  0
    6.3008    3.0522   -0.4625 H   0  0  0  0  0  0  0  0  0  0  0  0
    3.9589    0.0272   -1.4392 H   0  0  0  0  0  0  0  0  0  0  0  0
    3.7885    1.0468   -2.9447 H   0  0  0  0  0  0  0  0  0  0  0  0
    6.1380    0.8965   -3.3677 H   0  0  0  0  0  0  0  0  0  0  0  0
    5.4738   -0.7968   -3.0961 H   0  0  0  0  0  0  0  0  0  0  0  0
    4.3598    4.0294   -1.9366 H   0  0  0  0  0  0  0  0  0  0  0  0
    3.2098    2.8233   -2.5165 H   0  0  0  0  0  0  0  0  0  0  0  0
    2.2600    4.2431   -0.8394 H   0  0  0  0  0  0  0  0  0  0  0  0
    3.3823    3.7165    0.4191 H   0  0  0  0  0  0  0  0  0  0  0  0
    3.1596    1.2021    1.1696 H   0  0  0  0  0  0  0  0  0  0  0  0
    1.5482   -0.5601    1.5473 H   0  0  0  0  0  0  0  0  0  0  0  0
   -1.1341    1.2737   -1.2263 H   0  0  0  0  0  0  0  0  0  0  0  0
    0.4815    3.0091   -1.5671 H   0  0  0  0  0  0  0  0  0  0  0  0
   -0.3659   -1.7793    0.7315 H   0  0  0  0  0  0  0  0  0  0  0  0
   -1.4697   -3.2516    0.8702 H   0  0  0  0  0  0  0  0  0  0  0  0
   -6.2971   -2.9298    0.9397 H   0  0  0  0  0  0  0  0  0  0  0  0
   -4.5684    0.3523    0.6349 H   0  0  0  0  0  0  0  0  0  0  0  0
   -8.7512    0.5522   -0.8446 H   0  0  0  0  0  0  0  0  0  0  0  0
  -10.3614    2.2181   -1.5359 H   0  0  0  0  0  0  0  0  0  0  0  0
  -11.1330    4.6106   -1.5886 H   0  0  0  0  0  0  0  0  0  0  0  0
   -9.8517    6.3479   -0.5056 H   0  0  0  0  0  0  0  0  0  0  0  0
   -7.7571    5.7279    0.6590 H   0  0  0  0  0  0  0  0  0  0  0  0
   -5.4002    1.9309    1.4472 H   0  0  0  0  0  0  0  0  0  0  0  0
   -7.2132   -4.6666    0.3740 H   0  0  0  0  0  0  0  0  0  0  0  0
   -7.1934   -4.5483    2.1613 H   0  0  0  0  0  0  0  0  0  0  0  0
   -7.3609   -6.1491    1.4095 H   0  0  0  0  0  0  0  0  0  0  0  0
   -0.8738   -5.3687    0.2639 H   0  0  0  0  0  0  0  0  0  0  0  0
   -0.7842   -5.0534    2.0358 H   0  0  0  0  0  0  0  0  0  0  0  0
   -1.0161   -6.7350    1.4035 H   0  0  0  0  0  0  0  0  0  0  0  0
  1  2  1  0
  2  3  1  0
  3  4  2  0
  4  5  1  0
  5  6  2  0
  6  7  1  0
  7  8  2  0
  3  8  1  0
  8  9  1  0
  9 10  1  0
  6 11  1  0
 11 12  1  0
 12 13  1  0
 13 14  1  0
  5 14  1  0
 12 15  1  0
 15 16  1  0
 16 17  1  0
 17 18  2  0
 18 19  1  0
 19 20  2  0
 20 21  1  0
 21 22  2  0
 17 22  1  0
 20 23  1  0
 23 24  1  0
 24 25  2  0
 24 26  1  0
 26 27  2  0
 27 28  1  0
 28 29  2  0
 29 30  1  0
 30 31  2  0
 26 31  1  0
 31 32  1  0
 32 33  1  0
 33 34  2  0
 33 35  1  0
 35 36  2  0
 36 37  1  0
 37 38  2  0
 38 39  1  0
 39 40  2  0
 40 41  1  0
 41 42  2  0
 37 42  1  0
 42 43  1  0
 43 44  2  0
 35 44  1  0
 29 45  1  0
 45 46  1  0
 28 47  1  0
 47 48  1  0
  1 49  1  0
  1 50  1  0
  1 51  1  0
  4 52  1  0
  7 53  1  0
 10 54  1  0
 10 55  1  0
 10 56  1  0
 11 57  1  0
 11 58  1  0
 13 59  1  0
 13 60  1  0
 14 61  1  0
 14 62  1  0
 15 63  1  0
 15 64  1  0
 16 65  1  0
 16 66  1  0
 18 67  1  0
 19 68  1  0
 21 69  1  0
 22 70  1  0
 23 71  1  0
 27 72  1  0
 30 73  1  0
 32 74  1  0
 36 75  1  0
 38 76  1  0
 39 77  1  0
 40 78  1  0
 41 79  1  0
 44 80  1  0
 46 81  1  0
 46 82  1  0
 46 83  1  0
 48 84  1  0
 48 85  1  0
 48 86  1  0
M  END

