404771546
     RDKit          3D

 28 28  0  0  0  0  0  0  0  0999 V2000
   -0.4926   -0.7464   -0.3206 C   0  0  0  0  0  0  0  0  0  0  0  0
   -1.9158   -0.4654   -0.1621 C   0  0  0  0  0  0  0  0  0  0  0  0
   -2.3459    0.7475    0.3309 C   0  0  0  0  0  0  0  0  0  0  0  0
   -3.7057    1.0303    0.4879 C   0  0  0  0  0  0  0  0  0  0  0  0
   -4.6167    0.0568    0.1341 C   0  0  0  0  0  0  0  0  0  0  0  0
   -4.1904   -1.1583   -0.3596 C   0  0  0  0  0  0  0  0  0  0  0  0
   -2.8403   -1.4265   -0.5106 C   0  0  0  0  0  0  0  0  0  0  0  0
   -0.0915   -1.8505   -0.7697 O   0  0  0  0  0  0  0  0  0  0  0  0
    0.4692    0.1924    0.0179 O   0  0  0  0  0  0  0  0  0  0  0  0
   -6.0012    0.2780    0.2676 O   0  0  0  0  0  0  0  0  0  0  0  0
    1.8574   -0.0537   -0.1256 C   0  0  0  0  0  0  0  0  0  0  0  0
    2.6799    1.1291    0.3138 C   0  0  0  0  0  0  0  0  0  0  0  0
    4.1455    0.7462    0.1138 C   0  0  0  0  0  0  0  0  0  0  0  0
    4.4686   -0.4685    0.9473 C   0  0  0  0  0  0  0  0  0  0  0  0
   -1.6601    1.5145    0.6106 H   0  0  0  0  0  0  0  0  0  0  0  0
   -4.0392    1.9835    0.8751 H   0  0  0  0  0  0  0  0  0  0  0  0
   -4.9521   -1.9000   -0.6269 H   0  0  0  0  0  0  0  0  0  0  0  0
   -2.4851   -2.3638   -0.8923 H   0  0  0  0  0  0  0  0  0  0  0  0
   -6.4412    0.6879   -0.5652 H   0  0  0  0  0  0  0  0  0  0  0  0
    2.0535   -0.2219   -1.1988 H   0  0  0  0  0  0  0  0  0  0  0  0
    2.1784   -0.9262    0.5072 H   0  0  0  0  0  0  0  0  0  0  0  0
    2.5741    1.3225    1.4076 H   0  0  0  0  0  0  0  0  0  0  0  0
    2.4361    2.0357   -0.2425 H   0  0  0  0  0  0  0  0  0  0  0  0
    4.7983    1.5981    0.4489 H   0  0  0  0  0  0  0  0  0  0  0  0
    4.2748    0.5155   -0.9554 H   0  0  0  0  0  0  0  0  0  0  0  0
    4.1631   -1.4108    0.4864 H   0  0  0  0  0  0  0  0  0  0  0  0
    5.5859   -0.5008    1.0328 H   0  0  0  0  0  0  0  0  0  0  0  0
    4.0929   -0.3455    1.9913 H   0  0  0  0  0  0  0  0  0  0  0  0
  4  5  1  0
  5  6  2  0
  6  7  1  0
  2  7  2  0
  1  8  2  0
  1  9  1  0
  5 10  1  0
  9 11  1  0
  1  2  1  0
 11 12  1  0
  2  3  1  0
 12 13  1  0
  3  4  2  0
 13 14  1  0
  3 15  1  0
  4 16  1  0
  6 17  1  0
  7 18  1  0
 10 19  1  0
 11 20  1  0
 11 21  1  0
 12 22  1  0
 12 23  1  0
 13 24  1  0
 13 25  1  0
 14 26  1  0
 14 27  1  0
 14 28  1  0
M  END

