404772638
     RDKit          3D

 72 75  0  0  1  0  0  0  0  0999 V2000
    3.3088    0.9949    4.3076 C   0  0  0  0  0  0  0  0  0  0  0  0
    3.1590    0.3419    3.0300 N   0  0  0  0  0  0  0  0  0  0  0  0
    3.2797   -1.0308    2.8012 N   0  0  0  0  0  0  0  0  0  0  0  0
    3.1039   -1.2970    1.5545 C   0  0  0  0  0  0  0  0  0  0  0  0
    3.1043   -2.5493    0.7715 C   0  0  0  0  0  0  0  0  0  0  0  0
    2.3150   -2.4054   -0.5128 C   0  0  0  0  0  0  0  0  0  0  0  0
    1.2765   -1.3759   -0.3787 N   0  0  0  0  0  0  0  0  0  0  0  0
    1.7426   -0.0301   -0.0809 C   0  0  0  0  0  0  0  0  0  0  0  0
    2.9728   -0.0408    0.7692 C   0  0  2  0  0  0  0  0  0  0  0  0
    4.1890    0.3012   -0.0424 C   0  0  0  0  0  0  0  0  0  0  0  0
    5.4244    0.5016    0.7401 C   0  0  0  0  0  0  0  0  0  0  0  0
    5.7759    1.7370    1.2327 C   0  0  0  0  0  0  0  0  0  0  0  0
    6.9345    1.9420    1.9712 C   0  0  0  0  0  0  0  0  0  0  0  0
    7.7451    0.8588    2.2060 C   0  0  0  0  0  0  0  0  0  0  0  0
    7.3927   -0.3752    1.7122 C   0  0  0  0  0  0  0  0  0  0  0  0
    6.2399   -0.5802    0.9771 C   0  0  0  0  0  0  0  0  0  0  0  0
    2.8683    1.0006    1.8125 C   0  0  0  0  0  0  0  0  0  0  0  0
    2.5749    2.2068    1.5922 O   0  0  0  0  0  0  0  0  0  0  0  0
   -0.0768   -1.7358   -0.5181 C   0  0  0  0  0  0  0  0  0  0  0  0
   -0.2985   -2.9843   -0.7226 O   0  0  0  0  0  0  0  0  0  0  0  0
   -1.2380   -0.8676   -0.4573 C   0  0  1  0  0  0  0  0  0  0  0  0
   -1.3131    0.1079   -1.6214 C   0  0  0  0  0  0  0  0  0  0  0  0
   -2.4868    0.8924   -1.5100 O   0  0  0  0  0  0  0  0  0  0  0  0
   -2.4496    1.7383   -2.6239 C   0  0  0  0  0  0  0  0  0  0  0  0
   -3.5772    2.6432   -2.7265 C   0  0  0  0  0  0  0  0  0  0  0  0
   -3.6626    3.5123   -3.7832 C   0  0  0  0  0  0  0  0  0  0  0  0
   -4.7430    4.3975   -3.9074 C   0  0  0  0  0  0  0  0  0  0  0  0
   -5.7260    4.3724   -2.9346 C   0  0  0  0  0  0  0  0  0  0  0  0
   -5.6580    3.5062   -1.8663 C   0  0  0  0  0  0  0  0  0  0  0  0
   -4.5677    2.6424   -1.7779 C   0  0  0  0  0  0  0  0  0  0  0  0
   -2.4451   -1.6957   -0.5499 N   0  0  0  0  0  0  0  0  0  0  0  0
   -3.5027   -1.4526    0.3813 C   0  0  0  0  0  0  0  0  0  0  0  0
   -3.4186   -0.5485    1.2547 O   0  0  0  0  0  0  0  0  0  0  0  0
   -4.7438   -2.2666    0.3482 C   0  0  0  0  0  0  0  0  0  0  0  0
   -4.4677   -3.6767    0.8682 C   0  0  0  0  0  0  0  0  0  0  0  0
   -5.3265   -2.3941   -1.0325 C   0  0  0  0  0  0  0  0  0  0  0  0
   -5.7012   -1.6820    1.2489 N   0  0  0  0  0  0  0  0  0  0  0  0
    4.2359    1.6155    4.3088 H   0  0  0  0  0  0  0  0  0  0  0  0
    3.3778    0.2534    5.1352 H   0  0  0  0  0  0  0  0  0  0  0  0
    2.4735    1.6595    4.5543 H   0  0  0  0  0  0  0  0  0  0  0  0
    4.1243   -2.8585    0.5345 H   0  0  0  0  0  0  0  0  0  0  0  0
    2.6623   -3.3793    1.3837 H   0  0  0  0  0  0  0  0  0  0  0  0
    2.9695   -2.2373   -1.3855 H   0  0  0  0  0  0  0  0  0  0  0  0
    1.8455   -3.4103   -0.7007 H   0  0  0  0  0  0  0  0  0  0  0  0
    0.9123    0.4364    0.5220 H   0  0  0  0  0  0  0  0  0  0  0  0
    1.9837    0.5584   -0.9897 H   0  0  0  0  0  0  0  0  0  0  0  0
    3.9345    1.2766   -0.5548 H   0  0  0  0  0  0  0  0  0  0  0  0
    4.3950   -0.3962   -0.8806 H   0  0  0  0  0  0  0  0  0  0  0  0
    5.1612    2.6334    1.0572 H   0  0  0  0  0  0  0  0  0  0  0  0
    7.2200    2.9057    2.3638 H   0  0  0  0  0  0  0  0  0  0  0  0
    8.6682    1.0010    2.7912 H   0  0  0  0  0  0  0  0  0  0  0  0
    8.0384   -1.2352    1.8994 H   0  0  0  0  0  0  0  0  0  0  0  0
    6.0428   -1.5833    0.6189 H   0  0  0  0  0  0  0  0  0  0  0  0
   -1.2776   -0.2912    0.4802 H   0  0  0  0  0  0  0  0  0  0  0  0
   -0.4742    0.8196   -1.4846 H   0  0  0  0  0  0  0  0  0  0  0  0
   -1.3628   -0.3842   -2.5873 H   0  0  0  0  0  0  0  0  0  0  0  0
   -1.4702    2.2640   -2.6353 H   0  0  0  0  0  0  0  0  0  0  0  0
   -2.4404    1.0619   -3.5268 H   0  0  0  0  0  0  0  0  0  0  0  0
   -2.9332    3.5883   -4.5797 H   0  0  0  0  0  0  0  0  0  0  0  0
   -4.8237    5.0867   -4.7321 H   0  0  0  0  0  0  0  0  0  0  0  0
   -6.5434    5.0580   -3.0485 H   0  0  0  0  0  0  0  0  0  0  0  0
   -6.4319    3.5135   -1.1317 H   0  0  0  0  0  0  0  0  0  0  0  0
   -4.5613    1.9787   -0.9154 H   0  0  0  0  0  0  0  0  0  0  0  0
   -2.5494   -2.4354   -1.2561 H   0  0  0  0  0  0  0  0  0  0  0  0
   -3.4291   -3.9097    0.5486 H   0  0  0  0  0  0  0  0  0  0  0  0
   -4.6046   -3.7351    1.9523 H   0  0  0  0  0  0  0  0  0  0  0  0
   -5.1664   -4.3580    0.3693 H   0  0  0  0  0  0  0  0  0  0  0  0
   -4.7886   -1.7618   -1.7826 H   0  0  0  0  0  0  0  0  0  0  0  0
   -6.3805   -2.0416   -1.0465 H   0  0  0  0  0  0  0  0  0  0  0  0
   -5.3393   -3.4685   -1.3533 H   0  0  0  0  0  0  0  0  0  0  0  0
   -5.9235   -2.2506    2.0769 H   0  0  0  0  0  0  0  0  0  0  0  0
   -5.5492   -0.6832    1.4618 H   0  0  0  0  0  0  0  0  0  0  0  0
  1  2  1  0
  2  3  1  0
  3  4  2  0
  4  5  1  0
  5  6  1  0
  6  7  1  0
  7  8  1  0
  8  9  1  0
  4  9  1  0
  9 10  1  6
 10 11  1  0
 11 12  2  0
 12 13  1  0
 13 14  2  0
 14 15  1  0
 15 16  2  0
 11 16  1  0
  9 17  1  0
  2 17  1  0
 17 18  2  0
  7 19  1  0
 19 20  2  0
 19 21  1  0
 21 22  1  0
 22 23  1  0
 23 24  1  0
 24 25  1  0
 25 26  2  0
 26 27  1  0
 27 28  2  0
 28 29  1  0
 29 30  2  0
 25 30  1  0
 21 31  1  0
 31 32  1  0
 32 33  2  0
 32 34  1  0
 34 35  1  0
 34 36  1  0
 34 37  1  0
  1 38  1  0
  1 39  1  0
  1 40  1  0
  5 41  1  0
  5 42  1  0
  6 43  1  0
  6 44  1  0
  8 45  1  0
  8 46  1  0
 10 47  1  0
 10 48  1  0
 12 49  1  0
 13 50  1  0
 14 51  1  0
 15 52  1  0
 16 53  1  0
 21 54  1  1
 22 55  1  0
 22 56  1  0
 24 57  1  0
 24 58  1  0
 26 59  1  0
 27 60  1  0
 28 61  1  0
 29 62  1  0
 30 63  1  0
 31 64  1  0
 35 65  1  0
 35 66  1  0
 35 67  1  0
 36 68  1  0
 36 69  1  0
 36 70  1  0
 37 71  1  0
 37 72  1  0
M  END

