404771992
     RDKit          3D

 67 70  0  0  1  0  0  0  0  0999 V2000
   -4.9549   -1.9226    1.2024 C   0  0  0  0  0  0  0  0  0  0  0  0
   -5.9086   -1.0918    0.4344 C   0  0  0  0  0  0  0  0  0  0  0  0
   -5.3776    0.1712   -0.0729 C   0  0  0  0  0  0  0  0  0  0  0  0
   -3.5481   -1.4812    1.1068 C   0  0  0  0  0  0  0  0  0  0  0  0
   -3.1647   -0.8077   -0.2260 C   0  0  1  0  0  0  0  0  0  0  0  0
   -4.1156    0.3256   -0.3834 C   0  0  0  0  0  0  0  0  0  0  0  0
   -3.6883    1.6618   -0.8785 C   0  0  0  0  0  0  0  0  0  0  0  0
   -2.4801    2.0065    0.0036 C   0  0  0  0  0  0  0  0  0  0  0  0
   -1.7598   -0.4218   -0.1423 C   0  0  2  0  0  0  0  0  0  0  0  0
   -1.4198    1.0326   -0.4616 C   0  0  2  0  0  0  0  0  0  0  0  0
    0.6846   -0.8145   -0.6808 C   0  0  0  0  0  0  0  0  0  0  0  0
   -0.7431   -1.2026   -0.9076 C   0  0  2  0  0  0  0  0  0  0  0  0
    1.0158    0.6538   -0.7214 C   0  0  1  0  0  0  0  0  0  0  0  0
   -0.1103    1.2578    0.1212 C   0  0  1  0  0  0  0  0  0  0  0  0
    0.3391    2.6235    0.4671 C   0  0  0  0  0  0  0  0  0  0  0  0
    1.7038    2.2082    1.0536 C   0  0  0  0  0  0  0  0  0  0  0  0
    2.1774    1.1132    0.0671 C   0  0  1  0  0  0  0  0  0  0  0  0
   -7.0659   -1.4722    0.2544 O   0  0  0  0  0  0  0  0  0  0  0  0
   -3.5589   -1.8371   -1.2654 C   0  0  0  0  0  0  0  0  0  0  0  0
   -1.0072   -1.3538   -2.2563 O   0  0  0  0  0  0  0  0  0  0  0  0
    0.9481    1.1439   -2.1476 C   0  0  0  0  0  0  0  0  0  0  0  0
    2.7173    0.1296    0.9154 O   0  0  0  0  0  0  0  0  0  0  0  0
    3.2786    1.8092   -0.6659 C   0  0  0  0  0  0  0  0  0  0  0  0
    4.3898    1.3153   -0.5579 O   0  0  0  0  0  0  0  0  0  0  0  0
    3.2027    3.0130   -1.4892 C   0  0  0  0  0  0  0  0  0  0  0  0
    4.5028    3.5263   -1.7730 O   0  0  0  0  0  0  0  0  0  0  0  0
    3.3600   -1.0166    0.6771 C   0  0  0  0  0  0  0  0  0  0  0  0
    3.8299   -1.9331    1.7733 C   0  0  0  0  0  0  0  0  0  0  0  0
    3.5946   -1.3652   -0.4815 O   0  0  0  0  0  0  0  0  0  0  0  0
    5.3113   -2.2540    1.6393 C   0  0  0  0  0  0  0  0  0  0  0  0
    5.6766   -3.1699    2.7845 C   0  0  0  0  0  0  0  0  0  0  0  0
   -5.2742   -1.8540    2.2762 H   0  0  0  0  0  0  0  0  0  0  0  0
   -5.1134   -2.9848    0.9364 H   0  0  0  0  0  0  0  0  0  0  0  0
   -6.0759    1.0190   -0.1936 H   0  0  0  0  0  0  0  0  0  0  0  0
   -2.8879   -2.3984    1.1232 H   0  0  0  0  0  0  0  0  0  0  0  0
   -3.2080   -0.8639    1.9650 H   0  0  0  0  0  0  0  0  0  0  0  0
   -4.4261    2.4424   -0.7077 H   0  0  0  0  0  0  0  0  0  0  0  0
   -3.4450    1.5778   -1.9345 H   0  0  0  0  0  0  0  0  0  0  0  0
   -2.1094    3.0141   -0.2083 H   0  0  0  0  0  0  0  0  0  0  0  0
   -2.7833    1.8466    1.0438 H   0  0  0  0  0  0  0  0  0  0  0  0
   -1.3993   -0.5342    0.9379 H   0  0  0  0  0  0  0  0  0  0  0  0
   -1.3998    1.0963   -1.5681 H   0  0  0  0  0  0  0  0  0  0  0  0
    0.9751   -1.1973    0.3104 H   0  0  0  0  0  0  0  0  0  0  0  0
    1.2221   -1.3379   -1.5367 H   0  0  0  0  0  0  0  0  0  0  0  0
   -0.8152   -2.2555   -0.4865 H   0  0  0  0  0  0  0  0  0  0  0  0
   -0.0413    0.6681    1.0925 H   0  0  0  0  0  0  0  0  0  0  0  0
    0.4148    3.3506   -0.3285 H   0  0  0  0  0  0  0  0  0  0  0  0
   -0.3182    3.0212    1.2698 H   0  0  0  0  0  0  0  0  0  0  0  0
    1.5107    1.8175    2.0524 H   0  0  0  0  0  0  0  0  0  0  0  0
    2.3557    3.0660    1.1100 H   0  0  0  0  0  0  0  0  0  0  0  0
   -4.4310   -2.4737   -0.9049 H   0  0  0  0  0  0  0  0  0  0  0  0
   -3.9850   -1.3668   -2.1809 H   0  0  0  0  0  0  0  0  0  0  0  0
   -2.8099   -2.5834   -1.5030 H   0  0  0  0  0  0  0  0  0  0  0  0
   -1.7252   -0.8092   -2.6195 H   0  0  0  0  0  0  0  0  0  0  0  0
    0.1560    0.5725   -2.7268 H   0  0  0  0  0  0  0  0  0  0  0  0
    0.6523    2.1801   -2.2594 H   0  0  0  0  0  0  0  0  0  0  0  0
    1.8668    0.7997   -2.6588 H   0  0  0  0  0  0  0  0  0  0  0  0
    2.8081    2.8454   -2.5193 H   0  0  0  0  0  0  0  0  0  0  0  0
    2.6693    3.8620   -1.0163 H   0  0  0  0  0  0  0  0  0  0  0  0
    4.3413    4.4339   -2.1370 H   0  0  0  0  0  0  0  0  0  0  0  0
    3.3149   -2.9375    1.6515 H   0  0  0  0  0  0  0  0  0  0  0  0
    3.5470   -1.5798    2.7776 H   0  0  0  0  0  0  0  0  0  0  0  0
    5.5407   -2.7902    0.6962 H   0  0  0  0  0  0  0  0  0  0  0  0
    5.9256   -1.3271    1.6382 H   0  0  0  0  0  0  0  0  0  0  0  0
    6.7705   -3.2779    2.9077 H   0  0  0  0  0  0  0  0  0  0  0  0
    5.1894   -2.7465    3.7065 H   0  0  0  0  0  0  0  0  0  0  0  0
    5.1581   -4.1430    2.6058 H   0  0  0  0  0  0  0  0  0  0  0  0
 14 15  1  0
 15 16  1  0
 16 17  1  0
 13 17  1  0
  7  8  1  0
  2 18  2  0
  8 10  1  0
  5 19  1  6
  9 10  1  0
 12 20  1  0
  3  6  2  0
 13 21  1  6
  4  5  1  0
  5  6  1  0
  9 12  1  0
 17 22  1  1
 10 14  1  0
 17 23  1  0
 11 13  1  0
 23 24  2  0
 11 12  1  0
 23 25  1  0
 13 14  1  0
 25 26  1  0
  1  2  1  0
 22 27  1  0
  1  4  1  0
 27 28  1  0
  2  3  1  0
 27 29  2  0
  5  9  1  0
 28 30  1  0
  6  7  1  0
 30 31  1  0
  1 32  1  0
  1 33  1  0
  3 34  1  0
  4 35  1  0
  4 36  1  0
  7 37  1  0
  7 38  1  0
  8 39  1  0
  8 40  1  0
  9 41  1  1
 10 42  1  6
 11 43  1  0
 11 44  1  0
 12 45  1  1
 14 46  1  1
 15 47  1  0
 15 48  1  0
 16 49  1  0
 16 50  1  0
 19 51  1  0
 19 52  1  0
 19 53  1  0
 20 54  1  0
 21 55  1  0
 21 56  1  0
 21 57  1  0
 25 58  1  0
 25 59  1  0
 26 60  1  0
 28 61  1  0
 28 62  1  0
 30 63  1  0
 30 64  1  0
 31 65  1  0
 31 66  1  0
 31 67  1  0
M  END

