404772206
     RDKit          3D

 16 15  0  0  1  0  0  0  0  0999 V2000
    1.6965    0.0519    1.1725 O   0  0  0  0  0  0  0  0  0  0  0  0
    0.6218    0.5979    0.4859 C   0  0  2  0  0  0  0  0  0  0  0  0
   -0.5501   -0.3464    0.6443 C   0  0  2  0  0  0  0  0  0  0  0  0
   -0.2110   -1.5682    0.1199 O   0  0  0  0  0  0  0  0  0  0  0  0
   -1.7785    0.1412    0.0210 C   0  0  0  0  0  0  0  0  0  0  0  0
   -2.3006    1.2568    0.3378 O   0  0  0  0  0  0  0  0  0  0  0  0
   -2.4251   -0.6080   -0.9514 O   0  0  0  0  0  0  0  0  0  0  0  0
    0.9925    0.8024   -0.9265 C   0  0  0  0  0  0  0  0  0  0  0  0
    0.1933    1.2857   -1.7625 O   0  0  0  0  0  0  0  0  0  0  0  0
    2.2577    0.4539   -1.3529 O   0  0  0  0  0  0  0  0  0  0  0  0
    1.7074   -0.9413    1.1024 H   0  0  0  0  0  0  0  0  0  0  0  0
    0.3465    1.5573    0.9795 H   0  0  0  0  0  0  0  0  0  0  0  0
   -0.6968   -0.4703    1.7492 H   0  0  0  0  0  0  0  0  0  0  0  0
    0.0858   -2.1819    0.8218 H   0  0  0  0  0  0  0  0  0  0  0  0
   -2.9287   -0.2055   -1.7288 H   0  0  0  0  0  0  0  0  0  0  0  0
    2.9892    0.1747   -0.7121 H   0  0  0  0  0  0  0  0  0  0  0  0
  2  1  1  0
  2  3  1  0
  3  4  1  0
  3  5  1  0
  5  6  2  0
  5  7  1  0
  2  8  1  0
  8  9  2  0
  8 10  1  0
  1 11  1  0
  2 12  1  1
  3 13  1  1
  4 14  1  0
  7 15  1  0
 10 16  1  0
M  END

