404770367
     RDKit          3D

 32 33  0  0  1  0  0  0  0  0999 V2000
    3.0473   -0.4696   -1.2179 N   0  0  0  0  0  0  0  0  0  0  0  0
    1.7821   -0.8094   -0.9318 C   0  0  0  0  0  0  0  0  0  0  0  0
    1.2382   -0.5062    0.2430 N   0  0  0  0  0  0  0  0  0  0  0  0
    1.9597    0.1521    1.1681 C   0  0  0  0  0  0  0  0  0  0  0  0
    3.2812    0.5117    0.8804 C   0  0  0  0  0  0  0  0  0  0  0  0
    3.8198    0.1904   -0.3326 C   0  0  0  0  0  0  0  0  0  0  0  0
    1.0892   -1.4240   -1.7790 O   0  0  0  0  0  0  0  0  0  0  0  0
   -0.1069   -0.8601    0.5641 C   0  0  2  0  0  0  0  0  0  0  0  0
   -0.8636   -1.2634   -0.5088 O   0  0  0  0  0  0  0  0  0  0  0  0
   -2.1474   -0.8563   -0.2212 C   0  0  1  0  0  0  0  0  0  0  0  0
   -1.9121    0.5803    0.1765 C   0  0  1  0  0  0  0  0  0  0  0  0
   -0.7856    0.3521    1.1727 C   0  0  1  0  0  0  0  0  0  0  0  0
   -3.1130   -1.0107   -1.3482 C   0  0  0  0  0  0  0  0  0  0  0  0
   -4.3654   -0.5653   -0.9272 O   0  0  0  0  0  0  0  0  0  0  0  0
    5.1529    0.5304   -0.6759 N   0  0  0  0  0  0  0  0  0  0  0  0
   -1.3819    0.0158    2.3898 O   0  0  0  0  0  0  0  0  0  0  0  0
   -1.3784    1.3498   -0.9728 C   0  0  0  0  0  0  0  0  0  0  0  0
   -2.9996    1.2021    0.7126 O   0  0  0  0  0  0  0  0  0  0  0  0
   -0.9302    1.9777   -1.8997 C   0  0  0  0  0  0  0  0  0  0  0  0
    1.5942    0.4320    2.1361 H   0  0  0  0  0  0  0  0  0  0  0  0
    3.8927    1.0416    1.5988 H   0  0  0  0  0  0  0  0  0  0  0  0
   -0.0690   -1.7071    1.2876 H   0  0  0  0  0  0  0  0  0  0  0  0
   -2.4773   -1.3937    0.6813 H   0  0  0  0  0  0  0  0  0  0  0  0
   -0.1135    1.2179    1.2453 H   0  0  0  0  0  0  0  0  0  0  0  0
   -3.2258   -2.1044   -1.5367 H   0  0  0  0  0  0  0  0  0  0  0  0
   -2.7887   -0.5586   -2.2818 H   0  0  0  0  0  0  0  0  0  0  0  0
   -4.4346   -0.8195    0.0415 H   0  0  0  0  0  0  0  0  0  0  0  0
    5.4288    1.5235   -0.8037 H   0  0  0  0  0  0  0  0  0  0  0  0
    5.8379   -0.2418   -0.7940 H   0  0  0  0  0  0  0  0  0  0  0  0
   -1.0842   -0.9014    2.6302 H   0  0  0  0  0  0  0  0  0  0  0  0
   -3.4197    1.8723    0.0985 H   0  0  0  0  0  0  0  0  0  0  0  0
   -0.5271    2.5420   -2.7073 H   0  0  0  0  0  0  0  0  0  0  0  0
  3  4  1  0
  4  5  2  0
  9 10  1  0
 10 11  1  0
 11 12  1  0
  8 12  1  0
  8  3  1  0
  5  6  1  0
 10 13  1  0
 13 14  1  0
  2  7  2  0
  6 15  1  0
  8  9  1  0
 12 16  1  0
  1  2  1  0
 11 17  1  6
  1  6  2  0
 11 18  1  0
  2  3  1  0
 17 19  3  0
  4 20  1  0
  5 21  1  0
  8 22  1  1
 10 23  1  1
 12 24  1  1
 13 25  1  0
 13 26  1  0
 14 27  1  0
 15 28  1  0
 15 29  1  0
 16 30  1  0
 18 31  1  0
 19 32  1  0
M  END

