404771555
     RDKit          3D

 49 52  0  0  1  0  0  0  0  0999 V2000
   -0.3369   -1.7893    2.1648 H   0  0  0  0  0  0  0  0  0  0  0  0
    0.2225   -0.9065    1.7896 C   0  0  0  0  0  0  0  0  0  0  0  0
   -0.3120   -0.5462    0.4522 C   0  0  1  0  0  0  0  0  0  0  0  0
   -1.5524    0.2462    0.5658 C   0  0  2  0  0  0  0  0  0  0  0  0
   -2.6177   -0.2007    1.4575 C   0  0  0  0  0  0  0  0  0  0  0  0
   -3.8238    0.5600    0.9179 C   0  0  0  0  0  0  0  0  0  0  0  0
   -3.4137    1.0832   -0.4486 C   0  0  1  0  0  0  0  0  0  0  0  0
   -2.2688    0.1523   -0.7905 C   0  0  1  0  0  0  0  0  0  0  0  0
   -1.4069    0.6358   -1.9042 C   0  0  0  0  0  0  0  0  0  0  0  0
    0.0310    0.3087   -1.8066 C   0  0  0  0  0  0  0  0  0  0  0  0
    0.5859    0.2820   -0.4060 C   0  0  2  0  0  0  0  0  0  0  0  0
    2.0183   -0.1931   -0.4436 C   0  0  1  0  0  0  0  0  0  0  0  0
    2.7850    0.8068   -1.2597 C   0  0  0  0  0  0  0  0  0  0  0  0
    4.2334    0.9274   -0.8612 C   0  0  0  0  0  0  0  0  0  0  0  0
    4.2278    1.2185    0.5999 C   0  0  0  0  0  0  0  0  0  0  0  0
    4.8402    2.1916    1.1108 O   0  0  0  0  0  0  0  0  0  0  0  0
    3.4673    0.3114    1.4389 C   0  0  0  0  0  0  0  0  0  0  0  0
    2.4525   -0.3326    0.9469 C   0  0  0  0  0  0  0  0  0  0  0  0
    1.6831   -1.2589    1.8082 C   0  0  0  0  0  0  0  0  0  0  0  0
    2.0283   -1.1591    2.8516 H   0  0  0  0  0  0  0  0  0  0  0  0
    4.7025   -0.0578   -1.0269 H   0  0  0  0  0  0  0  0  0  0  0  0
    2.3495    1.8419   -1.1722 H   0  0  0  0  0  0  0  0  0  0  0  0
    2.1339   -1.5457   -1.1275 C   0  0  0  0  0  0  0  0  0  0  0  0
   -2.8483   -1.2077   -1.0225 C   0  0  0  0  0  0  0  0  0  0  0  0
   -4.4355    1.0283   -1.3702 O   0  0  0  0  0  0  0  0  0  0  0  0
    0.0234   -0.0819    2.5123 H   0  0  0  0  0  0  0  0  0  0  0  0
   -0.5194   -1.4951   -0.1013 H   0  0  0  0  0  0  0  0  0  0  0  0
   -1.3291    1.3096    0.7285 H   0  0  0  0  0  0  0  0  0  0  0  0
   -2.4385    0.1897    2.4934 H   0  0  0  0  0  0  0  0  0  0  0  0
   -2.8034   -1.2712    1.5183 H   0  0  0  0  0  0  0  0  0  0  0  0
   -4.0379    1.4660    1.5441 H   0  0  0  0  0  0  0  0  0  0  0  0
   -4.7204   -0.0781    0.8674 H   0  0  0  0  0  0  0  0  0  0  0  0
   -2.9739    2.1088   -0.3528 H   0  0  0  0  0  0  0  0  0  0  0  0
   -1.6153    1.7169   -2.0634 H   0  0  0  0  0  0  0  0  0  0  0  0
   -1.7905    0.1347   -2.8423 H   0  0  0  0  0  0  0  0  0  0  0  0
    0.3195   -0.6550   -2.3050 H   0  0  0  0  0  0  0  0  0  0  0  0
    0.6050    1.0982   -2.3616 H   0  0  0  0  0  0  0  0  0  0  0  0
    0.6153    1.3361   -0.0526 H   0  0  0  0  0  0  0  0  0  0  0  0
    2.7341    0.5412   -2.3536 H   0  0  0  0  0  0  0  0  0  0  0  0
    4.6774    1.7396   -1.4506 H   0  0  0  0  0  0  0  0  0  0  0  0
    3.7920    0.2053    2.4868 H   0  0  0  0  0  0  0  0  0  0  0  0
    1.8715   -2.3154    1.5219 H   0  0  0  0  0  0  0  0  0  0  0  0
    1.2892   -2.1921   -0.8245 H   0  0  0  0  0  0  0  0  0  0  0  0
    2.2270   -1.4068   -2.2090 H   0  0  0  0  0  0  0  0  0  0  0  0
    3.0627   -2.0236   -0.7092 H   0  0  0  0  0  0  0  0  0  0  0  0
   -3.9746   -1.2113   -0.9758 H   0  0  0  0  0  0  0  0  0  0  0  0
   -2.4807   -1.9907   -0.3630 H   0  0  0  0  0  0  0  0  0  0  0  0
   -2.6271   -1.4961   -2.0906 H   0  0  0  0  0  0  0  0  0  0  0  0
   -4.6515    1.9751   -1.6233 H   0  0  0  0  0  0  0  0  0  0  0  0
  1  2  1  0
  2  3  1  0
  3  4  1  0
  4  5  1  0
  5  6  1  0
  6  7  1  0
  7  8  1  0
  4  8  1  0
  8  9  1  0
  9 10  1  0
 11 10  1  0
  3 11  1  0
 11 12  1  0
 12 13  1  0
 13 14  1  0
 14 15  1  0
 15 16  2  0
 15 17  1  0
 17 18  2  0
 12 18  1  0
 18 19  1  0
  2 19  1  0
 19 20  1  0
 14 21  1  0
 13 22  1  0
 12 23  1  6
  8 24  1  6
  7 25  1  0
  2 26  1  0
  3 27  1  6
  4 28  1  1
  5 29  1  0
  5 30  1  0
  6 31  1  0
  6 32  1  0
  7 33  1  1
  9 34  1  0
  9 35  1  0
 10 36  1  0
 10 37  1  0
 11 38  1  1
 13 39  1  0
 14 40  1  0
 17 41  1  0
 19 42  1  0
 23 43  1  0
 23 44  1  0
 23 45  1  0
 24 46  1  0
 24 47  1  0
 24 48  1  0
 25 49  1  0
M  ISO  4   1   3  20   3  21   3  22   3
M  END

