404772723
     RDKit          3D

 72 77  0  0  1  0  0  0  0  0999 V2000
    4.5134    3.6278   -1.2043 C   0  0  0  0  0  0  0  0  0  0  0  0
    4.5904    2.2754   -0.7206 N   0  0  0  0  0  0  0  0  0  0  0  0
    3.5597    1.7495    0.0052 C   0  0  0  0  0  0  0  0  0  0  0  0
    2.5656    2.4859    0.2246 O   0  0  0  0  0  0  0  0  0  0  0  0
    3.5634    0.5084    0.4830 N   0  0  0  0  0  0  0  0  0  0  0  0
    4.6013   -0.3018    0.2698 C   0  0  0  0  0  0  0  0  0  0  0  0
    4.6282   -1.4905    0.7156 O   0  0  0  0  0  0  0  0  0  0  0  0
    5.6631    0.1591   -0.4467 C   0  0  0  0  0  0  0  0  0  0  0  0
    5.6375    1.4679   -0.9395 C   0  0  0  0  0  0  0  0  0  0  0  0
    6.6968    1.9507   -1.6632 C   0  0  0  0  0  0  0  0  0  0  0  0
    6.6889    3.2213   -2.1503 F   0  0  0  0  0  0  0  0  0  0  0  0
    7.8092    1.1388   -1.9135 C   0  0  0  0  0  0  0  0  0  0  0  0
    7.8337   -0.1465   -1.4291 C   0  0  0  0  0  0  0  0  0  0  0  0
    6.7680   -0.6276   -0.7028 C   0  0  0  0  0  0  0  0  0  0  0  0
    2.4534    0.0473    1.2240 C   0  0  0  0  0  0  0  0  0  0  0  0
    1.5323   -0.8451    0.7459 C   0  0  0  0  0  0  0  0  0  0  0  0
    1.6958   -1.3731   -0.6410 C   0  0  0  0  0  0  0  0  0  0  0  0
    0.4784   -1.2418    1.5375 C   0  0  0  0  0  0  0  0  0  0  0  0
    0.3263   -0.7591    2.8094 C   0  0  0  0  0  0  0  0  0  0  0  0
    1.2321    0.1323    3.3093 C   0  0  0  0  0  0  0  0  0  0  0  0
    2.2822    0.5218    2.5080 C   0  0  0  0  0  0  0  0  0  0  0  0
   -0.5129   -2.2170    1.0240 C   0  0  0  0  0  0  0  0  0  0  0  0
   -1.6386   -1.8182    0.3420 C   0  0  0  0  0  0  0  0  0  0  0  0
   -2.0794   -0.5592   -0.0130 C   0  0  0  0  0  0  0  0  0  0  0  0
   -3.2869   -0.7515   -0.6983 C   0  0  0  0  0  0  0  0  0  0  0  0
   -4.0649    0.3883   -1.2393 C   0  0  0  0  0  0  0  0  0  0  0  0
   -3.6984    1.7049   -0.6575 C   0  0  2  0  0  0  0  0  0  0  0  0
   -2.8260    1.6574    0.5543 C   0  0  0  0  0  0  0  0  0  0  0  0
   -1.5990    0.8280    0.1514 C   0  0  0  0  0  0  0  0  0  0  0  0
   -4.9613    2.5112   -0.4309 C   0  0  0  0  0  0  0  0  0  0  0  0
   -4.6351    3.8736    0.1665 C   0  0  0  0  0  0  0  0  0  0  0  0
   -5.9249    1.7678    0.4648 C   0  0  0  0  0  0  0  0  0  0  0  0
   -5.5523    2.7062   -1.6784 O   0  0  0  0  0  0  0  0  0  0  0  0
   -3.5530   -2.0666   -0.7493 N   0  0  0  0  0  0  0  0  0  0  0  0
   -2.5735   -2.7460   -0.1276 C   0  0  0  0  0  0  0  0  0  0  0  0
   -2.3976   -4.0978    0.0775 C   0  0  0  0  0  0  0  0  0  0  0  0
   -1.2564   -4.4822    0.7669 C   0  0  0  0  0  0  0  0  0  0  0  0
   -0.3362   -3.5674    1.2292 C   0  0  0  0  0  0  0  0  0  0  0  0
    0.7802   -3.9514    1.9042 F   0  0  0  0  0  0  0  0  0  0  0  0
   -3.3375   -5.1065   -0.3888 C   0  0  0  0  0  0  0  0  0  0  0  0
   -3.0971   -6.4818   -0.1447 N   0  0  0  0  0  0  0  0  0  0  0  0
   -4.3723   -4.7838   -1.0119 O   0  0  0  0  0  0  0  0  0  0  0  0
    5.2619    4.3153   -0.7602 H   0  0  0  0  0  0  0  0  0  0  0  0
    4.4716    3.6911   -2.3255 H   0  0  0  0  0  0  0  0  0  0  0  0
    3.5229    4.0612   -0.8691 H   0  0  0  0  0  0  0  0  0  0  0  0
    8.6225    1.5629   -2.4898 H   0  0  0  0  0  0  0  0  0  0  0  0
    8.7104   -0.7564   -1.6379 H   0  0  0  0  0  0  0  0  0  0  0  0
    6.7772   -1.6454   -0.3142 H   0  0  0  0  0  0  0  0  0  0  0  0
    2.2259   -0.6203   -1.2744 H   0  0  0  0  0  0  0  0  0  0  0  0
    2.3005   -2.2990   -0.6598 H   0  0  0  0  0  0  0  0  0  0  0  0
    0.6878   -1.5104   -1.0910 H   0  0  0  0  0  0  0  0  0  0  0  0
   -0.5070   -1.0866    3.4056 H   0  0  0  0  0  0  0  0  0  0  0  0
    1.1381    0.5413    4.3325 H   0  0  0  0  0  0  0  0  0  0  0  0
    3.0004    1.2313    2.9103 H   0  0  0  0  0  0  0  0  0  0  0  0
   -5.1336    0.1729   -1.0151 H   0  0  0  0  0  0  0  0  0  0  0  0
   -3.9514    0.4048   -2.3436 H   0  0  0  0  0  0  0  0  0  0  0  0
   -3.1201    2.2871   -1.4350 H   0  0  0  0  0  0  0  0  0  0  0  0
   -2.5285    2.6878    0.8048 H   0  0  0  0  0  0  0  0  0  0  0  0
   -3.3680    1.2019    1.3879 H   0  0  0  0  0  0  0  0  0  0  0  0
   -1.3231    1.1942   -0.8599 H   0  0  0  0  0  0  0  0  0  0  0  0
   -0.7469    0.9701    0.7962 H   0  0  0  0  0  0  0  0  0  0  0  0
   -4.5347    3.7045    1.2766 H   0  0  0  0  0  0  0  0  0  0  0  0
   -5.4977    4.5550    0.0175 H   0  0  0  0  0  0  0  0  0  0  0  0
   -3.6973    4.2855   -0.2601 H   0  0  0  0  0  0  0  0  0  0  0  0
   -5.4580    0.8505    0.8828 H   0  0  0  0  0  0  0  0  0  0  0  0
   -6.2294    2.4341    1.3081 H   0  0  0  0  0  0  0  0  0  0  0  0
   -6.8513    1.5313   -0.0908 H   0  0  0  0  0  0  0  0  0  0  0  0
   -6.5223    2.9312   -1.5980 H   0  0  0  0  0  0  0  0  0  0  0  0
   -4.3969   -2.4698   -1.2071 H   0  0  0  0  0  0  0  0  0  0  0  0
   -1.1208   -5.5438    0.9262 H   0  0  0  0  0  0  0  0  0  0  0  0
   -2.1335   -6.8354   -0.3343 H   0  0  0  0  0  0  0  0  0  0  0  0
   -3.7956   -7.1555    0.2034 H   0  0  0  0  0  0  0  0  0  0  0  0
  1  2  1  0
  2  3  1  0
  3  4  2  0
  3  5  1  0
  5  6  1  0
  6  7  2  0
  6  8  1  0
  8  9  2  0
  2  9  1  0
  9 10  1  0
 10 11  1  0
 10 12  2  0
 12 13  1  0
 13 14  2  0
  8 14  1  0
  5 15  1  0
 15 16  2  0
 16 17  1  0
 16 18  1  0
 18 19  2  0
 19 20  1  0
 20 21  2  0
 15 21  1  0
 18 22  1  0
 22 23  2  0
 23 24  1  0
 24 25  2  0
 25 26  1  0
 26 27  1  0
 27 28  1  0
 28 29  1  0
 24 29  1  0
 27 30  1  0
 30 31  1  0
 30 32  1  0
 30 33  1  0
 25 34  1  0
 34 35  1  0
 23 35  1  0
 35 36  2  0
 36 37  1  0
 37 38  2  0
 22 38  1  0
 38 39  1  0
 36 40  1  0
 40 41  1  0
 40 42  2  0
  1 43  1  0
  1 44  1  0
  1 45  1  0
 12 46  1  0
 13 47  1  0
 14 48  1  0
 17 49  1  0
 17 50  1  0
 17 51  1  0
 19 52  1  0
 20 53  1  0
 21 54  1  0
 26 55  1  0
 26 56  1  0
 27 57  1  6
 28 58  1  0
 28 59  1  0
 29 60  1  0
 29 61  1  0
 31 62  1  0
 31 63  1  0
 31 64  1  0
 32 65  1  0
 32 66  1  0
 32 67  1  0
 33 68  1  0
 34 69  1  0
 37 70  1  0
 41 71  1  0
 41 72  1  0
M  END

