404771417
     RDKit          3D

 98103  0  0  1  0  0  0  0  0999 V2000
   11.8464    2.6038   -0.1034 C   0  0  0  0  0  0  0  0  0  0  0  0
   10.7341    1.5577    0.1091 C   0  0  0  0  0  0  0  0  0  0  0  0
   10.9952    0.3376   -0.6806 C   0  0  0  0  0  0  0  0  0  0  0  0
   10.0709   -0.8006   -0.6067 C   0  0  0  0  0  0  0  0  0  0  0  0
    8.6902   -0.7480   -1.0720 C   0  0  0  0  0  0  0  0  0  0  0  0
    7.7329    0.2201   -0.4876 C   0  0  0  0  0  0  0  0  0  0  0  0
    6.3901   -0.0680   -1.1248 C   0  0  0  0  0  0  0  0  0  0  0  0
    6.0416    0.4204   -2.2225 O   0  0  0  0  0  0  0  0  0  0  0  0
    5.4637   -0.8905   -0.5328 O   0  0  0  0  0  0  0  0  0  0  0  0
    4.2187   -1.2331   -0.9971 C   0  0  2  0  0  0  0  0  0  0  0  0
    3.0691   -0.8116   -0.1120 C   0  0  2  0  0  0  0  0  0  0  0  0
    1.9228   -1.3964   -0.9152 C   0  0  1  0  0  0  0  0  0  0  0  0
    2.4065   -2.7471   -1.2581 C   0  0  0  0  0  0  0  0  0  0  0  0
    3.9398   -2.6847   -1.1960 C   0  0  0  0  0  0  0  0  0  0  0  0
    0.6459   -1.2754   -0.1856 C   0  0  2  0  0  0  0  0  0  0  0  0
   -0.4930   -1.8980   -0.9349 C   0  0  0  0  0  0  0  0  0  0  0  0
   -1.8344   -1.3659   -0.6748 C   0  0  0  0  0  0  0  0  0  0  0  0
   -1.9610   -0.3012    0.3065 C   0  0  0  0  0  0  0  0  0  0  0  0
   -0.7767    0.2284    1.0459 C   0  0  2  0  0  0  0  0  0  0  0  0
    0.3668    0.1879    0.0562 C   0  0  1  0  0  0  0  0  0  0  0  0
    1.5248    0.9748    0.5409 C   0  0  0  0  0  0  0  0  0  0  0  0
    2.8448    0.6644   -0.0777 C   0  0  0  0  0  0  0  0  0  0  0  0
   -0.4913   -0.6997    2.2049 C   0  0  0  0  0  0  0  0  0  0  0  0
   -1.0158    1.6020    1.5788 C   0  0  0  0  0  0  0  0  0  0  0  0
   -2.2984    1.7203    2.3504 C   0  0  0  0  0  0  0  0  0  0  0  0
   -3.4082    1.2641    1.4931 C   0  0  0  0  0  0  0  0  0  0  0  0
   -4.5495    1.8499    1.6501 N   0  0  0  0  0  0  0  0  0  0  0  0
   -5.6645    1.4897    0.8879 N   0  0  0  0  0  0  0  0  0  0  0  0
   -6.6454    0.6633    1.4900 C   0  0  0  0  0  0  0  0  0  0  0  0
   -6.4520    0.2915    2.7045 O   0  0  0  0  0  0  0  0  0  0  0  0
   -7.8781    0.1957    0.8175 C   0  0  0  0  0  0  0  0  0  0  0  0
   -7.5534   -0.5795   -0.3906 C   0  0  0  0  0  0  0  0  0  0  0  0
   -7.2649    0.0214   -1.5936 C   0  0  0  0  0  0  0  0  0  0  0  0
   -6.9504   -0.7517   -2.6908 C   0  0  0  0  0  0  0  0  0  0  0  0
   -6.9130   -2.1248   -2.6312 C   0  0  0  0  0  0  0  0  0  0  0  0
   -7.2063   -2.7053   -1.4148 C   0  0  0  0  0  0  0  0  0  0  0  0
   -7.5198   -1.9605   -0.3156 C   0  0  0  0  0  0  0  0  0  0  0  0
   -8.8631    1.2794    0.6011 C   0  0  0  0  0  0  0  0  0  0  0  0
  -10.1511    0.9646    0.2323 C   0  0  0  0  0  0  0  0  0  0  0  0
  -11.0753    1.9890    0.0387 C   0  0  0  0  0  0  0  0  0  0  0  0
  -10.7292    3.3060    0.2080 C   0  0  0  0  0  0  0  0  0  0  0  0
   -9.4354    3.6205    0.5783 C   0  0  0  0  0  0  0  0  0  0  0  0
   -8.5147    2.5921    0.7706 C   0  0  0  0  0  0  0  0  0  0  0  0
   -8.5396   -0.6811    1.7379 O   0  0  0  0  0  0  0  0  0  0  0  0
   -3.1629    0.2025    0.5396 C   0  0  0  0  0  0  0  0  0  0  0  0
    3.1935   -1.3914    1.2695 C   0  0  0  0  0  0  0  0  0  0  0  0
   11.9793    2.8165   -1.1828 H   0  0  0  0  0  0  0  0  0  0  0  0
   12.8077    2.2570    0.3190 H   0  0  0  0  0  0  0  0  0  0  0  0
   11.5702    3.5568    0.3926 H   0  0  0  0  0  0  0  0  0  0  0  0
    9.8060    2.0904   -0.0181 H   0  0  0  0  0  0  0  0  0  0  0  0
   10.7976    1.2930    1.2072 H   0  0  0  0  0  0  0  0  0  0  0  0
   12.0127   -0.0602   -0.3398 H   0  0  0  0  0  0  0  0  0  0  0  0
   11.2460    0.6088   -1.7686 H   0  0  0  0  0  0  0  0  0  0  0  0
   10.0430   -1.0885    0.5152 H   0  0  0  0  0  0  0  0  0  0  0  0
   10.5419   -1.7430   -1.0579 H   0  0  0  0  0  0  0  0  0  0  0  0
    8.6812   -0.6904   -2.2065 H   0  0  0  0  0  0  0  0  0  0  0  0
    8.2443   -1.7909   -0.8882 H   0  0  0  0  0  0  0  0  0  0  0  0
    8.0168    1.2584   -0.8602 H   0  0  0  0  0  0  0  0  0  0  0  0
    7.6932    0.2728    0.5931 H   0  0  0  0  0  0  0  0  0  0  0  0
    4.0584   -0.7264   -1.9716 H   0  0  0  0  0  0  0  0  0  0  0  0
    1.8572   -0.7514   -1.8309 H   0  0  0  0  0  0  0  0  0  0  0  0
    1.9981   -3.5591   -0.6590 H   0  0  0  0  0  0  0  0  0  0  0  0
    2.1795   -2.9423   -2.3400 H   0  0  0  0  0  0  0  0  0  0  0  0
    4.4102   -3.1215   -2.0973 H   0  0  0  0  0  0  0  0  0  0  0  0
    4.2163   -3.3246   -0.3374 H   0  0  0  0  0  0  0  0  0  0  0  0
    0.7283   -1.8562    0.7693 H   0  0  0  0  0  0  0  0  0  0  0  0
   -0.2576   -1.7963   -2.0216 H   0  0  0  0  0  0  0  0  0  0  0  0
   -0.4906   -3.0169   -0.7674 H   0  0  0  0  0  0  0  0  0  0  0  0
   -2.3134   -0.9845   -1.6260 H   0  0  0  0  0  0  0  0  0  0  0  0
   -2.5374   -2.1923   -0.3537 H   0  0  0  0  0  0  0  0  0  0  0  0
    0.0027    0.6191   -0.8930 H   0  0  0  0  0  0  0  0  0  0  0  0
    1.3108    2.0590    0.3002 H   0  0  0  0  0  0  0  0  0  0  0  0
    1.5917    0.9725    1.6684 H   0  0  0  0  0  0  0  0  0  0  0  0
    3.6228    1.2222    0.4691 H   0  0  0  0  0  0  0  0  0  0  0  0
    2.8280    1.0331   -1.1237 H   0  0  0  0  0  0  0  0  0  0  0  0
    0.6084   -0.7023    2.4450 H   0  0  0  0  0  0  0  0  0  0  0  0
   -0.9788   -0.3882    3.1501 H   0  0  0  0  0  0  0  0  0  0  0  0
   -0.8730   -1.7322    2.0136 H   0  0  0  0  0  0  0  0  0  0  0  0
   -0.1968    1.8308    2.3158 H   0  0  0  0  0  0  0  0  0  0  0  0
   -1.0492    2.3773    0.7792 H   0  0  0  0  0  0  0  0  0  0  0  0
   -2.3323    1.0953    3.2687 H   0  0  0  0  0  0  0  0  0  0  0  0
   -2.4458    2.7740    2.6880 H   0  0  0  0  0  0  0  0  0  0  0  0
   -5.7439    1.8229   -0.0695 H   0  0  0  0  0  0  0  0  0  0  0  0
   -7.2834    1.1135   -1.7149 H   0  0  0  0  0  0  0  0  0  0  0  0
   -6.7244   -0.2662   -3.6288 H   0  0  0  0  0  0  0  0  0  0  0  0
   -6.6640   -2.7465   -3.4992 H   0  0  0  0  0  0  0  0  0  0  0  0
   -7.1812   -3.8021   -1.3464 H   0  0  0  0  0  0  0  0  0  0  0  0
   -7.7421   -2.4859    0.6208 H   0  0  0  0  0  0  0  0  0  0  0  0
  -10.5144   -0.0399    0.0770 H   0  0  0  0  0  0  0  0  0  0  0  0
  -12.0968    1.7710   -0.2510 H   0  0  0  0  0  0  0  0  0  0  0  0
  -11.4415    4.0894    0.0582 H   0  0  0  0  0  0  0  0  0  0  0  0
   -9.1882    4.6627    0.7040 H   0  0  0  0  0  0  0  0  0  0  0  0
   -7.5291    2.9253    1.0604 H   0  0  0  0  0  0  0  0  0  0  0  0
   -7.8266   -1.1771    2.2142 H   0  0  0  0  0  0  0  0  0  0  0  0
   -4.0493   -0.1744    0.0031 H   0  0  0  0  0  0  0  0  0  0  0  0
    2.9590   -0.6168    2.0183 H   0  0  0  0  0  0  0  0  0  0  0  0
    2.5985   -2.2903    1.4102 H   0  0  0  0  0  0  0  0  0  0  0  0
    4.2998   -1.5878    1.4080 H   0  0  0  0  0  0  0  0  0  0  0  0
  1  2  1  0
  2  3  1  0
  3  4  1  0
  4  5  1  0
  5  6  1  0
  6  7  1  0
  7  8  2  0
  7  9  1  0
 10  9  1  0
 10 11  1  0
 10 14  1  0
 11 12  1  0
 11 22  1  0
 11 46  1  1
 12 13  1  0
 12 15  1  0
 13 14  1  0
 15 16  1  0
 15 20  1  0
 16 17  1  0
 17 18  1  0
 18 19  1  0
 18 45  2  0
 19 20  1  0
 19 23  1  1
 19 24  1  0
 20 21  1  0
 21 22  1  0
 24 25  1  0
 25 26  1  0
 26 27  2  3
 26 45  1  0
 27 28  1  0
 28 29  1  0
 29 30  2  0
 29 31  1  0
 31 32  1  0
 31 38  1  0
 31 44  1  0
 32 33  2  0
 32 37  1  0
 33 34  1  0
 34 35  2  0
 35 36  1  0
 36 37  2  0
 38 39  2  0
 38 43  1  0
 39 40  1  0
 40 41  2  0
 41 42  1  0
 42 43  2  0
  1 47  1  0
  1 48  1  0
  1 49  1  0
  2 50  1  0
  2 51  1  0
  3 52  1  0
  3 53  1  0
  4 54  1  0
  4 55  1  0
  5 56  1  0
  5 57  1  0
  6 58  1  0
  6 59  1  0
 10 60  1  6
 12 61  1  6
 13 62  1  0
 13 63  1  0
 14 64  1  0
 14 65  1  0
 15 66  1  1
 16 67  1  0
 16 68  1  0
 17 69  1  0
 17 70  1  0
 20 71  1  6
 21 72  1  0
 21 73  1  0
 22 74  1  0
 22 75  1  0
 23 76  1  0
 23 77  1  0
 23 78  1  0
 24 79  1  0
 24 80  1  0
 25 81  1  0
 25 82  1  0
 28 83  1  0
 33 84  1  0
 34 85  1  0
 35 86  1  0
 36 87  1  0
 37 88  1  0
 39 89  1  0
 40 90  1  0
 41 91  1  0
 42 92  1  0
 43 93  1  0
 44 94  1  0
 45 95  1  0
 46 96  1  0
 46 97  1  0
 46 98  1  0
M  END

