404770880
     RDKit          3D

 48 50  0  0  0  0  0  0  0  0999 V2000
   -2.6299   -2.8527    1.0115 C   0  0  0  0  0  0  0  0  0  0  0  0
   -2.2390   -1.6307    0.4606 O   0  0  0  0  0  0  0  0  0  0  0  0
   -0.9615   -1.1669    0.3189 C   0  0  0  0  0  0  0  0  0  0  0  0
    0.0680   -2.0144    0.7826 C   0  0  0  0  0  0  0  0  0  0  0  0
    1.3749   -1.6238    0.6830 C   0  0  0  0  0  0  0  0  0  0  0  0
    1.6903   -0.3810    0.1205 C   0  0  0  0  0  0  0  0  0  0  0  0
    0.6640    0.4206   -0.3192 C   0  0  0  0  0  0  0  0  0  0  0  0
   -0.6614    0.0315   -0.2241 C   0  0  0  0  0  0  0  0  0  0  0  0
   -1.7279    0.8347   -0.8879 C   0  0  0  0  0  0  0  0  0  0  0  0
   -1.3285    1.9694   -1.2382 O   0  0  0  0  0  0  0  0  0  0  0  0
   -3.0136    0.3372   -1.0785 N   0  0  0  0  0  0  0  0  0  0  0  0
   -4.2590   -0.1253   -1.2714 C   0  0  0  0  0  0  0  0  0  0  0  0
   -5.4174    0.3677   -0.4883 C   0  0  0  0  0  0  0  0  0  0  0  0
   -5.5683    1.6131    0.0471 C   0  0  0  0  0  0  0  0  0  0  0  0
   -6.7334    1.9416    0.7337 C   0  0  0  0  0  0  0  0  0  0  0  0
   -7.7704    1.0484    0.9091 C   0  0  0  0  0  0  0  0  0  0  0  0
   -7.5888   -0.1772    0.3712 N   0  0  0  0  0  0  0  0  0  0  0  0
   -6.4818   -0.5310   -0.2982 C   0  0  0  0  0  0  0  0  0  0  0  0
    3.1171   -0.0901   -0.0100 C   0  0  0  0  0  0  0  0  0  0  0  0
    3.6156    1.0489    0.1326 O   0  0  0  0  0  0  0  0  0  0  0  0
    3.9778   -1.1810   -0.3203 N   0  0  0  0  0  0  0  0  0  0  0  0
    5.4019   -1.0622   -0.4975 C   0  0  0  0  0  0  0  0  0  0  0  0
    5.9341    0.2963   -0.4301 C   0  0  0  0  0  0  0  0  0  0  0  0
    6.5431    0.7765    0.7226 C   0  0  0  0  0  0  0  0  0  0  0  0
    7.0552    2.0652    0.7620 C   0  0  0  0  0  0  0  0  0  0  0  0
    6.9708    2.8951   -0.3440 C   0  0  0  0  0  0  0  0  0  0  0  0
    6.3740    2.4031   -1.4434 N   0  0  0  0  0  0  0  0  0  0  0  0
    5.8651    1.1482   -1.5118 C   0  0  0  0  0  0  0  0  0  0  0  0
   -2.4022   -3.6737    0.3292 H   0  0  0  0  0  0  0  0  0  0  0  0
   -3.7491   -2.8132    1.1238 H   0  0  0  0  0  0  0  0  0  0  0  0
   -2.1463   -3.0640    1.9950 H   0  0  0  0  0  0  0  0  0  0  0  0
   -0.1981   -2.9736    1.2184 H   0  0  0  0  0  0  0  0  0  0  0  0
    2.1680   -2.3002    1.0414 H   0  0  0  0  0  0  0  0  0  0  0  0
    0.9007    1.3813   -0.7552 H   0  0  0  0  0  0  0  0  0  0  0  0
   -3.3603    1.5375   -1.6189 H   0  0  0  0  0  0  0  0  0  0  0  0
   -4.5739   -0.0559   -2.3770 H   0  0  0  0  0  0  0  0  0  0  0  0
   -4.2779   -1.2771   -1.1252 H   0  0  0  0  0  0  0  0  0  0  0  0
   -4.7552    2.3257   -0.0934 H   0  0  0  0  0  0  0  0  0  0  0  0
   -6.8297    2.9525    1.1410 H   0  0  0  0  0  0  0  0  0  0  0  0
   -8.6793    1.3173    1.4412 H   0  0  0  0  0  0  0  0  0  0  0  0
   -6.4174   -1.5550   -0.6922 H   0  0  0  0  0  0  0  0  0  0  0  0
    3.5390   -2.1414   -0.4303 H   0  0  0  0  0  0  0  0  0  0  0  0
    5.9280   -1.7140    0.2693 H   0  0  0  0  0  0  0  0  0  0  0  0
    5.6765   -1.5694   -1.4791 H   0  0  0  0  0  0  0  0  0  0  0  0
    6.5927    0.1062    1.5779 H   0  0  0  0  0  0  0  0  0  0  0  0
    7.5327    2.4311    1.6753 H   0  0  0  0  0  0  0  0  0  0  0  0
    7.3825    3.9200   -0.3246 H   0  0  0  0  0  0  0  0  0  0  0  0
    5.3984    0.8045   -2.4284 H   0  0  0  0  0  0  0  0  0  0  0  0
  1  2  1  0
  2  3  1  0
  3  4  2  0
  4  5  1  0
  5  6  2  0
  6  7  1  0
  7  8  2  0
  3  8  1  0
  8  9  1  0
  9 10  2  0
  9 11  1  0
 11 12  1  0
 12 13  1  0
 13 14  2  0
 14 15  1  0
 15 16  2  0
 16 17  1  0
 17 18  2  0
 13 18  1  0
  6 19  1  0
 19 20  2  0
 19 21  1  0
 21 22  1  0
 22 23  1  0
 23 24  2  0
 24 25  1  0
 25 26  2  0
 26 27  1  0
 27 28  2  0
 23 28  1  0
  1 29  1  0
  1 30  1  0
  1 31  1  0
  4 32  1  0
  5 33  1  0
  7 34  1  0
 11 35  1  0
 12 36  1  0
 12 37  1  0
 14 38  1  0
 15 39  1  0
 16 40  1  0
 18 41  1  0
 21 42  1  0
 22 43  1  0
 22 44  1  0
 24 45  1  0
 25 46  1  0
 26 47  1  0
 28 48  1  0
M  END

