404771179
     RDKit          3D

100110  0  0  1  0  0  0  0  0999 V2000
   -0.7112   -1.5175   -1.1682 N   0  0  0  0  0  0  0  0  0  0  0  0
   -1.6946   -1.0495   -0.2093 C   0  0  2  0  0  0  0  0  0  0  0  0
   -2.9935   -1.4910   -0.7341 C   0  0  2  0  0  0  0  0  0  0  0  0
   -2.7527   -2.2191   -2.0124 C   0  0  0  0  0  0  0  0  0  0  0  0
   -1.3912   -2.1978   -2.2142 C   0  0  0  0  0  0  0  0  0  0  0  0
   -0.9282   -2.8234   -3.3619 C   0  0  0  0  0  0  0  0  0  0  0  0
   -1.7967   -3.4402   -4.2615 C   0  0  0  0  0  0  0  0  0  0  0  0
   -3.1507   -3.4546   -4.0490 C   0  0  0  0  0  0  0  0  0  0  0  0
   -3.6207   -2.8363   -2.9125 C   0  0  0  0  0  0  0  0  0  0  0  0
   -1.5356    0.3769    0.0293 C   0  0  0  0  0  0  0  0  0  0  0  0
   -2.5924    1.4236   -0.2059 C   0  0  1  0  0  0  0  0  0  0  0  0
   -3.4183    0.8940   -1.3761 C   0  0  0  0  0  0  0  0  0  0  0  0
   -4.0051   -0.4063   -0.9601 C   0  0  2  0  0  0  0  0  0  0  0  0
   -4.8326   -0.3581    0.2169 N   0  0  1  0  0  4  0  0  0  0  0  0
   -3.4935    1.5041    0.9619 C   0  0  0  0  0  0  0  0  0  0  0  0
   -4.1368    0.1888    1.3641 C   0  0  0  0  0  0  0  0  0  0  0  0
   -5.9755    0.4479   -0.0703 C   0  0  0  0  0  0  0  0  0  0  0  0
   -5.0932   -1.7411    0.4640 C   0  0  0  0  0  0  0  0  0  0  0  0
   -3.7265   -2.4069    0.2423 C   0  0  0  0  0  0  0  0  0  0  0  0
   -7.2287    0.0132    0.5580 C   0  0  0  0  0  0  0  0  0  0  0  0
   -8.2903   -0.3166   -0.1555 C   0  0  0  0  0  0  0  0  0  0  0  0
   -3.7654    2.5934    1.6486 C   0  0  0  0  0  0  0  0  0  0  0  0
   -3.2099    3.9120    1.3590 C   0  0  0  0  0  0  0  0  0  0  0  0
   -4.2292    4.8345    1.0715 O   0  0  0  0  0  0  0  0  0  0  0  0
    0.8112    0.8864    0.9102 N   0  0  0  0  0  0  0  0  0  0  0  0
    1.7866   -0.1686    0.7996 C   0  0  2  0  0  0  0  0  0  0  0  0
    3.0975    0.4675    1.0448 C   0  0  2  0  0  0  0  0  0  0  0  0
    2.7516    1.7426    1.7520 C   0  0  0  0  0  0  0  0  0  0  0  0
    1.4172    1.9329    1.6471 C   0  0  0  0  0  0  0  0  0  0  0  0
    3.5415    2.6457    2.4276 C   0  0  0  0  0  0  0  0  0  0  0  0
    2.9879    3.7567    3.0076 C   0  0  0  0  0  0  0  0  0  0  0  0
    1.6313    3.9898    2.9252 C   0  0  0  0  0  0  0  0  0  0  0  0
    0.8620    3.0720    2.2440 C   0  0  0  0  0  0  0  0  0  0  0  0
    3.9923    0.7131   -0.1053 C   0  0  2  0  0  0  0  0  0  0  0  0
    3.4343    0.3218   -1.4461 C   0  0  0  0  0  0  0  0  0  0  0  0
    2.9058   -1.1418   -1.2395 C   0  0  2  0  0  0  0  0  0  0  0  0
    1.6804   -0.8961   -0.4666 C   0  0  0  0  0  0  0  0  0  0  0  0
   -0.5266    1.0995    0.4729 C   0  0  0  0  0  0  0  0  0  0  0  0
    0.7053   -1.3942   -1.1850 C   0  0  0  0  0  0  0  0  0  0  0  0
    4.0262   -1.8175   -0.5801 C   0  0  0  0  0  0  0  0  0  0  0  0
    5.2700    0.0781    0.1425 N   0  0  1  0  0  4  0  0  0  0  0  0
    5.3688   -1.1171   -0.6699 C   0  0  0  0  0  0  0  0  0  0  0  0
    6.3990    0.9081   -0.1356 C   0  0  0  0  0  0  0  0  0  0  0  0
    6.1141    2.1836   -0.7958 C   0  0  0  0  0  0  0  0  0  0  0  0
    6.4163    3.3585   -0.2573 C   0  0  0  0  0  0  0  0  0  0  0  0
    5.3162   -0.3333    1.5090 C   0  0  0  0  0  0  0  0  0  0  0  0
    3.9362   -0.3058    2.0585 C   0  0  0  0  0  0  0  0  0  0  0  0
    4.0479   -2.9621    0.0583 C   0  0  0  0  0  0  0  0  0  0  0  0
    2.8880   -3.8248    0.2365 C   0  0  0  0  0  0  0  0  0  0  0  0
    3.1792   -5.0905   -0.3673 O   0  0  0  0  0  0  0  0  0  0  0  0
   -1.4462   -1.6025    0.7458 H   0  0  0  0  0  0  0  0  0  0  0  0
    0.1362   -2.8209   -3.5443 H   0  0  0  0  0  0  0  0  0  0  0  0
   -1.3963   -3.9185   -5.1469 H   0  0  0  0  0  0  0  0  0  0  0  0
   -3.8219   -3.9397   -4.7588 H   0  0  0  0  0  0  0  0  0  0  0  0
   -4.6722   -2.8391   -2.7332 H   0  0  0  0  0  0  0  0  0  0  0  0
   -2.0881    2.3363   -0.4999 H   0  0  0  0  0  0  0  0  0  0  0  0
   -4.2240    1.5768   -1.6620 H   0  0  0  0  0  0  0  0  0  0  0  0
   -2.6960    0.6993   -2.1889 H   0  0  0  0  0  0  0  0  0  0  0  0
   -4.6732   -0.7586   -1.7946 H   0  0  0  0  0  0  0  0  0  0  0  0
   -3.3990   -0.5092    1.7778 H   0  0  0  0  0  0  0  0  0  0  0  0
   -4.9075    0.3653    2.1407 H   0  0  0  0  0  0  0  0  0  0  0  0
   -6.1278    0.5307   -1.1850 H   0  0  0  0  0  0  0  0  0  0  0  0
   -5.7075    1.5027    0.2349 H   0  0  0  0  0  0  0  0  0  0  0  0
   -5.7650   -2.1273   -0.3290 H   0  0  0  0  0  0  0  0  0  0  0  0
   -5.4577   -1.9576    1.4898 H   0  0  0  0  0  0  0  0  0  0  0  0
   -3.9001   -3.3955   -0.2266 H   0  0  0  0  0  0  0  0  0  0  0  0
   -3.2215   -2.4617    1.2141 H   0  0  0  0  0  0  0  0  0  0  0  0
   -7.2893   -0.0399    1.6345 H   0  0  0  0  0  0  0  0  0  0  0  0
   -8.3085   -0.2891   -1.2447 H   0  0  0  0  0  0  0  0  0  0  0  0
   -9.1850   -0.6285    0.3546 H   0  0  0  0  0  0  0  0  0  0  0  0
   -4.4721    2.4353    2.4948 H   0  0  0  0  0  0  0  0  0  0  0  0
   -2.4629    3.8617    0.5650 H   0  0  0  0  0  0  0  0  0  0  0  0
   -2.6902    4.2869    2.2868 H   0  0  0  0  0  0  0  0  0  0  0  0
   -4.1501    5.1785    0.1452 H   0  0  0  0  0  0  0  0  0  0  0  0
    1.5675   -0.8977    1.6238 H   0  0  0  0  0  0  0  0  0  0  0  0
    4.6080    2.5002    2.5154 H   0  0  0  0  0  0  0  0  0  0  0  0
    3.5779    4.5059    3.5575 H   0  0  0  0  0  0  0  0  0  0  0  0
    1.1613    4.8622    3.3750 H   0  0  0  0  0  0  0  0  0  0  0  0
   -0.2046    3.2307    2.1643 H   0  0  0  0  0  0  0  0  0  0  0  0
    4.1654    1.8291   -0.1793 H   0  0  0  0  0  0  0  0  0  0  0  0
    4.1634    0.3632   -2.2492 H   0  0  0  0  0  0  0  0  0  0  0  0
    2.5323    0.9222   -1.6456 H   0  0  0  0  0  0  0  0  0  0  0  0
    2.7202   -1.5835   -2.2358 H   0  0  0  0  0  0  0  0  0  0  0  0
   -0.7667    2.1532    0.5250 H   0  0  0  0  0  0  0  0  0  0  0  0
    1.0905   -1.8729   -2.0949 H   0  0  0  0  0  0  0  0  0  0  0  0
    5.6121   -0.9179   -1.7254 H   0  0  0  0  0  0  0  0  0  0  0  0
    6.1906   -1.7425   -0.2602 H   0  0  0  0  0  0  0  0  0  0  0  0
    7.1655    0.3778   -0.7761 H   0  0  0  0  0  0  0  0  0  0  0  0
    6.9748    1.1382    0.8093 H   0  0  0  0  0  0  0  0  0  0  0  0
    5.6369    2.1862   -1.7673 H   0  0  0  0  0  0  0  0  0  0  0  0
    6.8965    3.3722    0.7174 H   0  0  0  0  0  0  0  0  0  0  0  0
    6.2099    4.2938   -0.7369 H   0  0  0  0  0  0  0  0  0  0  0  0
    6.0354    0.3202    2.0847 H   0  0  0  0  0  0  0  0  0  0  0  0
    5.7328   -1.3650    1.6547 H   0  0  0  0  0  0  0  0  0  0  0  0
    3.4920   -1.2728    2.3046 H   0  0  0  0  0  0  0  0  0  0  0  0
    4.0039    0.2368    3.0473 H   0  0  0  0  0  0  0  0  0  0  0  0
    5.0011   -3.3353    0.5095 H   0  0  0  0  0  0  0  0  0  0  0  0
    1.9737   -3.5174   -0.2482 H   0  0  0  0  0  0  0  0  0  0  0  0
    2.7463   -4.1035    1.3148 H   0  0  0  0  0  0  0  0  0  0  0  0
    4.1717   -5.2030   -0.2660 H   0  0  0  0  0  0  0  0  0  0  0  0
  1  2  1  0
  3  4  1  0
  1  5  1  0
  4  9  2  0
  4  5  1  0
  5  6  2  0
  6  7  1  0
  7  8  2  0
  8  9  1  0
  2 10  1  0
  2  3  1  0
  3 13  1  0
 10 11  1  0
 11 12  1  0
 12 13  1  0
 13 14  1  0
 11 15  1  0
 14 16  1  0
 15 16  1  0
 14 17  1  6
 14 18  1  0
  3 19  1  1
 18 19  1  0
 17 20  1  0
 20 21  2  3
 15 22  2  0
 22 23  1  0
 23 24  1  0
 25 26  1  0
 27 28  1  0
 25 29  1  0
 28 30  2  0
 28 29  1  0
 29 33  2  0
 30 31  1  0
 31 32  2  0
 32 33  1  0
 26 37  1  0
 26 27  1  0
 27 34  1  0
 34 35  1  0
 35 36  1  0
 36 37  1  0
 10 38  2  0
 25 38  1  0
  1 39  1  0
 37 39  2  0
 36 40  1  0
 34 41  1  0
 40 42  1  0
 41 42  1  0
 41 43  1  6
 43 44  1  0
 44 45  2  3
 41 46  1  0
 27 47  1  1
 46 47  1  0
 40 48  2  0
 48 49  1  0
 49 50  1  0
  2 51  1  1
  6 52  1  0
  7 53  1  0
  8 54  1  0
  9 55  1  0
 11 56  1  6
 12 57  1  0
 12 58  1  0
 13 59  1  6
 16 60  1  0
 16 61  1  0
 17 62  1  0
 17 63  1  0
 18 64  1  0
 18 65  1  0
 19 66  1  0
 19 67  1  0
 20 68  1  0
 21 69  1  0
 21 70  1  0
 22 71  1  0
 23 72  1  0
 23 73  1  0
 24 74  1  0
 26 75  1  1
 30 76  1  0
 31 77  1  0
 32 78  1  0
 33 79  1  0
 34 80  1  6
 35 81  1  0
 35 82  1  0
 36 83  1  6
 38 84  1  0
 39 85  1  0
 42 86  1  0
 42 87  1  0
 43 88  1  0
 43 89  1  0
 44 90  1  0
 45 91  1  0
 45 92  1  0
 46 93  1  0
 46 94  1  0
 47 95  1  0
 47 96  1  0
 48 97  1  0
 49 98  1  0
 49 99  1  0
 50100  1  0
M  CHG  2  14   1  41   1
M  END

