404770092
     RDKit          3D

 83 87  0  0  1  0  0  0  0  0999 V2000
    2.3202    0.8227   -2.2395 C   0  0  0  0  0  0  0  0  0  0  0  0
   -3.3550    6.7129    1.6743 C   0  0  0  0  0  0  0  0  0  0  0  0
   -3.0255    4.5587    2.8600 C   0  0  0  0  0  0  0  0  0  0  0  0
   -5.2770   -6.9046   -0.6629 C   0  0  0  0  0  0  0  0  0  0  0  0
   -5.1586   -5.0635    0.9359 C   0  0  0  0  0  0  0  0  0  0  0  0
    7.6133    1.8650    2.2543 C   0  0  0  0  0  0  0  0  0  0  0  0
    7.6113    0.6396    3.1503 C   0  0  0  0  0  0  0  0  0  0  0  0
   -1.8085    0.1211    1.4634 C   0  0  0  0  0  0  0  0  0  0  0  0
   -2.7960   -0.8814    0.9795 C   0  0  0  0  0  0  0  0  0  0  0  0
   -1.5734    3.2817   -1.2990 C   0  0  0  0  0  0  0  0  0  0  0  0
   -2.1973   -3.5155   -2.2118 C   0  0  0  0  0  0  0  0  0  0  0  0
   -1.1438    2.0831   -1.7709 C   0  0  0  0  0  0  0  0  0  0  0  0
   -1.4792   -2.3484   -2.2478 C   0  0  0  0  0  0  0  0  0  0  0  0
    6.5625    1.6155    1.2144 C   0  0  0  0  0  0  0  0  0  0  0  0
   -2.0722    2.3640    0.8125 C   0  0  0  0  0  0  0  0  0  0  0  0
   -3.1619   -2.8366   -0.1983 C   0  0  0  0  0  0  0  0  0  0  0  0
    0.6379   -0.6469   -1.0169 C   0  0  0  0  0  0  0  0  0  0  0  0
    6.6049   -1.5911    2.8869 C   0  0  0  0  0  0  0  0  0  0  0  0
    3.9448    0.3930    0.0990 C   0  0  0  0  0  0  0  0  0  0  0  0
    1.7940    0.2792   -0.9756 C   0  0  1  0  0  0  0  0  0  0  0  0
   -1.6374    1.1032    0.3657 C   0  0  0  0  0  0  0  0  0  0  0  0
   -2.4212   -1.6301   -0.2327 C   0  0  0  0  0  0  0  0  0  0  0  0
   -2.0580    3.4814    0.0151 C   0  0  0  0  0  0  0  0  0  0  0  0
   -3.0845   -3.8029   -1.1580 C   0  0  0  0  0  0  0  0  0  0  0  0
    7.1458   -0.4272    2.1844 C   0  0  1  0  0  0  0  0  0  0  0  0
   -1.1829    0.9783   -0.9053 C   0  0  0  0  0  0  0  0  0  0  0  0
   -1.5900   -1.4015   -1.2565 C   0  0  0  0  0  0  0  0  0  0  0  0
    4.9485   -0.3643    0.9116 C   0  0  0  0  0  0  0  0  0  0  0  0
   -2.5095    4.8003    0.4182 C   0  0  0  0  0  0  0  0  0  0  0  0
   -3.7858   -5.0466   -1.2303 C   0  0  0  0  0  0  0  0  0  0  0  0
   -0.7343   -0.1496   -3.0670 C   0  0  0  0  0  0  0  0  0  0  0  0
   -0.6601   -0.2255   -1.5826 C   0  0  0  0  0  0  0  0  0  0  0  0
    6.1849   -2.5044    3.4454 N   0  0  0  0  0  0  0  0  0  0  0  0
    2.8554   -0.4407   -0.2890 N   0  0  0  0  0  0  0  0  0  0  0  0
    0.1632   -0.3446   -4.0364 N   0  0  0  0  0  0  0  0  0  0  0  0
   -1.8759    0.1577   -3.7709 N   0  0  0  0  0  0  0  0  0  0  0  0
   -0.3295   -0.1844   -5.2310 N   0  0  0  0  0  0  0  0  0  0  0  0
   -1.5919    0.1263   -5.0572 N   0  0  0  0  0  0  0  0  0  0  0  0
   -2.9446    5.2811    1.6318 N   0  0  0  0  0  0  0  0  0  0  0  0
   -4.6879   -5.5742   -0.3129 N   0  0  0  0  0  0  0  0  0  0  0  0
    6.1449    0.2514    1.4063 N   0  0  0  0  0  0  0  0  0  0  0  0
    4.7341   -1.5567    1.1597 O   0  0  0  0  0  0  0  0  0  0  0  0
   -2.4905    5.6747   -0.5647 O   0  0  0  0  0  0  0  0  0  0  0  0
   -3.5662   -5.7864   -2.2714 O   0  0  0  0  0  0  0  0  0  0  0  0
    2.6539    0.1162   -2.9824 H   0  0  0  0  0  0  0  0  0  0  0  0
    1.5373    1.4862   -2.6836 H   0  0  0  0  0  0  0  0  0  0  0  0
    3.2322    1.4646   -2.0202 H   0  0  0  0  0  0  0  0  0  0  0  0
   -3.9415    6.9186    2.5786 H   0  0  0  0  0  0  0  0  0  0  0  0
   -2.4379    7.2996    1.5823 H   0  0  0  0  0  0  0  0  0  0  0  0
   -4.0251    6.8433    0.7846 H   0  0  0  0  0  0  0  0  0  0  0  0
   -3.2848    5.2812    3.7210 H   0  0  0  0  0  0  0  0  0  0  0  0
   -3.8357    3.8154    2.9300 H   0  0  0  0  0  0  0  0  0  0  0  0
   -2.0327    4.1622    3.2058 H   0  0  0  0  0  0  0  0  0  0  0  0
   -5.5298   -7.4642    0.2343 H   0  0  0  0  0  0  0  0  0  0  0  0
   -4.5629   -7.4911   -1.2597 H   0  0  0  0  0  0  0  0  0  0  0  0
   -6.1787   -6.7080   -1.2402 H   0  0  0  0  0  0  0  0  0  0  0  0
   -5.7474   -4.1433    0.8295 H   0  0  0  0  0  0  0  0  0  0  0  0
   -5.8232   -5.8509    1.4565 H   0  0  0  0  0  0  0  0  0  0  0  0
   -4.3608   -4.9147    1.6616 H   0  0  0  0  0  0  0  0  0  0  0  0
    7.3539    2.7802    2.8209 H   0  0  0  0  0  0  0  0  0  0  0  0
    8.6260    1.9993    1.8045 H   0  0  0  0  0  0  0  0  0  0  0  0
    6.8378    0.7400    3.9383 H   0  0  0  0  0  0  0  0  0  0  0  0
    8.5987    0.4416    3.5880 H   0  0  0  0  0  0  0  0  0  0  0  0
   -0.9097   -0.3658    1.8187 H   0  0  0  0  0  0  0  0  0  0  0  0
   -2.2665    0.6128    2.3609 H   0  0  0  0  0  0  0  0  0  0  0  0
   -3.0330   -1.5722    1.8308 H   0  0  0  0  0  0  0  0  0  0  0  0
   -3.7677   -0.3374    0.7809 H   0  0  0  0  0  0  0  0  0  0  0  0
   -1.5356    4.1304   -1.9878 H   0  0  0  0  0  0  0  0  0  0  0  0
   -2.0633   -4.2274   -3.0293 H   0  0  0  0  0  0  0  0  0  0  0  0
   -0.7773    1.9269   -2.7548 H   0  0  0  0  0  0  0  0  0  0  0  0
   -0.8210   -2.2113   -3.0890 H   0  0  0  0  0  0  0  0  0  0  0  0
    5.7156    2.3322    1.3085 H   0  0  0  0  0  0  0  0  0  0  0  0
    7.0613    1.7294    0.2068 H   0  0  0  0  0  0  0  0  0  0  0  0
   -2.4287    2.4319    1.8082 H   0  0  0  0  0  0  0  0  0  0  0  0
   -3.8266   -3.0043    0.6281 H   0  0  0  0  0  0  0  0  0  0  0  0
    0.4567   -0.9645    0.0480 H   0  0  0  0  0  0  0  0  0  0  0  0
    1.0181   -1.6010   -1.4888 H   0  0  0  0  0  0  0  0  0  0  0  0
    3.5435    1.1893    0.7702 H   0  0  0  0  0  0  0  0  0  0  0  0
    4.4752    0.9076   -0.7331 H   0  0  0  0  0  0  0  0  0  0  0  0
    1.5817    1.1328   -0.2246 H   0  0  0  0  0  0  0  0  0  0  0  0
    8.0008   -0.7485    1.5470 H   0  0  0  0  0  0  0  0  0  0  0  0
    3.1960   -1.2028   -0.9212 H   0  0  0  0  0  0  0  0  0  0  0  0
    0.2341   -0.2979   -6.1094 H   0  0  0  0  0  0  0  0  0  0  0  0
  6  7  1  0
  8  9  1  0
 10 12  1  0
 11 13  1  0
  6 14  1  0
 20  1  1  0
 17 20  1  0
  8 21  1  0
 15 21  2  0
  9 22  1  0
 16 22  2  0
 10 23  2  0
 15 23  1  0
 11 24  2  0
 16 24  1  0
  7 25  1  0
 25 18  1  0
 12 26  2  0
 21 26  1  0
 13 27  2  0
 22 27  1  0
 19 28  1  0
 23 29  1  0
 24 30  1  0
 17 32  1  0
 26 32  1  0
 27 32  1  0
 31 32  1  0
 18 33  3  0
 19 34  1  0
 20 34  1  0
 31 35  2  0
 31 36  1  0
 35 37  1  0
 36 38  2  0
 37 38  1  0
  2 39  1  0
  3 39  1  0
 29 39  1  0
  4 40  1  0
  5 40  1  0
 30 40  1  0
 14 41  1  0
 25 41  1  0
 28 41  1  0
 28 42  2  0
 29 43  2  0
 30 44  2  0
  1 45  1  0
  1 46  1  0
  1 47  1  0
  2 48  1  0
  2 49  1  0
  2 50  1  0
  3 51  1  0
  3 52  1  0
  3 53  1  0
  4 54  1  0
  4 55  1  0
  4 56  1  0
  5 57  1  0
  5 58  1  0
  5 59  1  0
  6 60  1  0
  6 61  1  0
  7 62  1  0
  7 63  1  0
  8 64  1  0
  8 65  1  0
  9 66  1  0
  9 67  1  0
 10 68  1  0
 11 69  1  0
 12 70  1  0
 13 71  1  0
 14 72  1  0
 14 73  1  0
 15 74  1  0
 16 75  1  0
 17 76  1  0
 17 77  1  0
 19 78  1  0
 19 79  1  0
 20 80  1  1
 25 81  1  6
 34 82  1  0
 37 83  1  0
M  END

