404770358
     RDKit          3D

 78 85  0  0  1  0  0  0  0  0999 V2000
   -7.1399    1.1271   -0.5722 C   0  0  0  0  0  0  0  0  0  0  0  0
   -7.9767    2.1094    0.1285 C   0  0  0  0  0  0  0  0  0  0  0  0
   -9.2344    2.4055   -0.3544 C   0  0  0  0  0  0  0  0  0  0  0  0
  -10.0315    3.3117    0.2793 N   0  0  0  0  0  0  0  0  0  0  0  0
   -9.6215    3.9458    1.3925 C   0  0  0  0  0  0  0  0  0  0  0  0
   -8.3629    3.6431    1.8676 C   0  0  0  0  0  0  0  0  0  0  0  0
   -7.5751    2.7404    1.2318 N   0  0  0  0  0  0  0  0  0  0  0  0
   -4.8004    0.6370   -0.6876 N   0  0  0  0  0  0  0  0  0  0  0  0
   -5.5543   -0.5459   -0.4803 C   0  0  0  0  0  0  0  0  0  0  0  0
   -6.7390   -0.0317    0.3545 C   0  0  0  0  0  0  0  0  0  0  0  0
   -5.7634    1.7083   -0.9262 C   0  0  0  0  0  0  0  0  0  0  0  0
    9.2018    2.0743   -0.1032 C   0  0  0  0  0  0  0  0  0  0  0  0
    9.4061    1.2409    1.1343 C   0  0  0  0  0  0  0  0  0  0  0  0
    8.1238    0.4403    1.3391 C   0  0  0  0  0  0  0  0  0  0  0  0
    7.4646    0.5615    0.0015 C   0  0  2  0  0  0  0  0  0  0  0  0
    7.8142    1.8710   -0.5102 N   0  0  0  0  0  0  0  0  0  0  0  0
   -2.9063    2.1425   -0.9773 C   0  0  0  0  0  0  0  0  0  0  0  0
   -3.3958    0.8848   -0.7081 C   0  0  0  0  0  0  0  0  0  0  0  0
   -1.5504    2.4109   -0.9934 C   0  0  0  0  0  0  0  0  0  0  0  0
   -0.6112    1.4317   -0.7404 C   0  0  0  0  0  0  0  0  0  0  0  0
    1.1551   -0.5408   -0.2331 C   0  0  0  0  0  0  0  0  0  0  0  0
    1.6546    0.7341   -0.5055 C   0  0  0  0  0  0  0  0  0  0  0  0
    0.7414    1.7217   -0.7605 C   0  0  0  0  0  0  0  0  0  0  0  0
   -1.0854    0.1625   -0.4685 C   0  0  0  0  0  0  0  0  0  0  0  0
   -2.4468   -0.0874   -0.4567 C   0  0  0  0  0  0  0  0  0  0  0  0
   -2.8386   -1.3722   -0.1787 O   0  0  0  0  0  0  0  0  0  0  0  0
   -0.1622   -0.8084   -0.2170 N   0  0  0  0  0  0  0  0  0  0  0  0
   -0.6082   -2.1386    0.0697 C   0  0  0  0  0  0  0  0  0  0  0  0
   -1.9784   -2.4259    0.0887 C   0  0  0  0  0  0  0  0  0  0  0  0
   -2.4238   -3.7002    0.3623 C   0  0  0  0  0  0  0  0  0  0  0  0
    0.2467   -3.1851    0.3354 C   0  0  0  0  0  0  0  0  0  0  0  0
   -0.2164   -4.4781    0.6126 C   0  0  0  0  0  0  0  0  0  0  0  0
   -1.5629   -4.7395    0.6265 C   0  0  0  0  0  0  0  0  0  0  0  0
   -2.0450   -6.0255    0.9020 C   0  0  0  0  0  0  0  0  0  0  0  0
   -1.1199   -7.0118    1.1569 C   0  0  0  0  0  0  0  0  0  0  0  0
    0.2262   -6.7839    1.1506 C   0  0  0  0  0  0  0  0  0  0  0  0
    0.6788   -5.4925    0.8729 C   0  0  0  0  0  0  0  0  0  0  0  0
   -3.7408    3.1915   -1.2513 F   0  0  0  0  0  0  0  0  0  0  0  0
    1.1467    2.8838   -1.0107 O   0  0  0  0  0  0  0  0  0  0  0  0
    3.0819    0.9766   -0.5137 C   0  0  0  0  0  0  0  0  0  0  0  0
    3.9484    0.1814   -1.2976 N   0  0  0  0  0  0  0  0  0  0  0  0
    3.5084    1.9188    0.2030 O   0  0  0  0  0  0  0  0  0  0  0  0
    5.3693    0.4266   -1.3053 C   0  0  0  0  0  0  0  0  0  0  0  0
    5.9978    0.2934    0.0655 C   0  0  0  0  0  0  0  0  0  0  0  0
    7.0347    2.9441    0.0161 C   0  0  0  0  0  0  0  0  0  0  0  0
   -7.6320    0.6864   -1.4358 H   0  0  0  0  0  0  0  0  0  0  0  0
   -9.5820    1.9089   -1.2453 H   0  0  0  0  0  0  0  0  0  0  0  0
  -10.2692    4.6678    1.8887 H   0  0  0  0  0  0  0  0  0  0  0  0
   -8.0092    4.1446    2.7697 H   0  0  0  0  0  0  0  0  0  0  0  0
   -6.0324   -0.9231   -1.4198 H   0  0  0  0  0  0  0  0  0  0  0  0
   -5.0801   -1.3970   -0.0150 H   0  0  0  0  0  0  0  0  0  0  0  0
   -7.5330   -0.7699    0.4447 H   0  0  0  0  0  0  0  0  0  0  0  0
   -6.3137    0.3371    1.2961 H   0  0  0  0  0  0  0  0  0  0  0  0
   -5.6129    2.5489   -0.2103 H   0  0  0  0  0  0  0  0  0  0  0  0
   -5.7729    1.9976   -1.9813 H   0  0  0  0  0  0  0  0  0  0  0  0
    9.9046    1.8494   -0.9143 H   0  0  0  0  0  0  0  0  0  0  0  0
    9.3867    3.1362    0.1850 H   0  0  0  0  0  0  0  0  0  0  0  0
    9.6519    1.8351    2.0271 H   0  0  0  0  0  0  0  0  0  0  0  0
   10.2782    0.5526    0.9743 H   0  0  0  0  0  0  0  0  0  0  0  0
    8.4202   -0.5741    1.6095 H   0  0  0  0  0  0  0  0  0  0  0  0
    7.5069    0.8809    2.1524 H   0  0  0  0  0  0  0  0  0  0  0  0
    7.9089   -0.2290   -0.6592 H   0  0  0  0  0  0  0  0  0  0  0  0
   -1.1922    3.4209   -1.2107 H   0  0  0  0  0  0  0  0  0  0  0  0
    1.9079   -1.2870   -0.0379 H   0  0  0  0  0  0  0  0  0  0  0  0
   -3.4829   -3.9155    0.3753 H   0  0  0  0  0  0  0  0  0  0  0  0
    1.3092   -3.0017    0.3296 H   0  0  0  0  0  0  0  0  0  0  0  0
   -3.1164   -6.1896    0.9029 H   0  0  0  0  0  0  0  0  0  0  0  0
   -1.4653   -8.0139    1.3728 H   0  0  0  0  0  0  0  0  0  0  0  0
    0.9858   -7.5278    1.3451 H   0  0  0  0  0  0  0  0  0  0  0  0
    1.7310   -5.2562    0.8551 H   0  0  0  0  0  0  0  0  0  0  0  0
    3.5642   -0.5903   -1.8773 H   0  0  0  0  0  0  0  0  0  0  0  0
    5.5904    1.4204   -1.7736 H   0  0  0  0  0  0  0  0  0  0  0  0
    5.8446   -0.3117   -1.9818 H   0  0  0  0  0  0  0  0  0  0  0  0
    5.4506    0.8119    0.8647 H   0  0  0  0  0  0  0  0  0  0  0  0
    5.9025   -0.8030    0.3276 H   0  0  0  0  0  0  0  0  0  0  0  0
    7.6921    3.7324    0.4823 H   0  0  0  0  0  0  0  0  0  0  0  0
    6.5027    3.4337   -0.8536 H   0  0  0  0  0  0  0  0  0  0  0  0
    6.2464    2.6718    0.7217 H   0  0  0  0  0  0  0  0  0  0  0  0
  1 11  1  0
 20 23  1  0
 21 27  1  0
 21 22  2  0
 22 23  1  0
 24 25  2  0
  8 11  1  0
 12 13  1  0
  5  6  2  0
  1  2  1  0
 24 27  1  0
 25 26  1  0
 26 29  1  0
 27 28  1  0
  6  7  1  0
  2  7  2  0
 28 29  2  0
  8  9  1  0
 29 30  1  0
 30 33  2  0
 13 14  1  0
 31 32  2  0
 28 31  1  0
 14 15  1  0
 15 16  1  0
 32 33  1  0
 12 16  1  0
 33 34  1  0
  3  4  2  0
 34 35  2  0
 35 36  1  0
 17 18  2  0
 36 37  2  0
 32 37  1  0
 18 25  1  0
 17 38  1  0
  4  5  1  0
 23 39  2  0
 19 20  2  0
 22 40  1  0
 17 19  1  0
 40 41  1  0
 20 24  1  0
 40 42  2  0
  2  3  1  0
 41 43  1  0
  9 10  1  0
 43 44  1  0
 15 44  1  0
  8 18  1  0
  1 10  1  0
 16 45  1  0
  1 46  1  0
  3 47  1  0
  5 48  1  0
  6 49  1  0
  9 50  1  0
  9 51  1  0
 10 52  1  0
 10 53  1  0
 11 54  1  0
 11 55  1  0
 12 56  1  0
 12 57  1  0
 13 58  1  0
 13 59  1  0
 14 60  1  0
 14 61  1  0
 15 62  1  6
 19 63  1  0
 21 64  1  0
 30 65  1  0
 31 66  1  0
 34 67  1  0
 35 68  1  0
 36 69  1  0
 37 70  1  0
 41 71  1  0
 43 72  1  0
 43 73  1  0
 44 74  1  0
 44 75  1  0
 45 76  1  0
 45 77  1  0
 45 78  1  0
M  END

