404772178
     RDKit          3D

 91 93  0  0  1  0  0  0  0  0999 V2000
   -0.7621   -1.6025    0.8059 O   0  0  0  0  0  0  0  0  0  0  0  0
   -5.8821   -0.9055    3.6675 O   0  0  0  0  0  0  0  0  0  0  0  0
    1.0221   -1.1609   -1.4292 O   0  0  0  0  0  0  0  0  0  0  0  0
   -1.7389   -1.9277    5.0270 O   0  0  0  0  0  0  0  0  0  0  0  0
    2.3150    0.4119    1.5771 O   0  0  0  0  0  0  0  0  0  0  0  0
    3.4390    1.2691   -0.7889 O   0  0  0  0  0  0  0  0  0  0  0  0
   -2.4158   -2.0680   -0.5193 O   0  0  0  0  0  0  0  0  0  0  0  0
    1.1093    0.4585   -2.9875 O   0  0  0  0  0  0  0  0  0  0  0  0
    2.7723   -1.2361    3.0437 O   0  0  0  0  0  0  0  0  0  0  0  0
    5.3510    0.8746   -1.9502 O   0  0  0  0  0  0  0  0  0  0  0  0
   -2.1911    0.7547    1.2609 N   0  0  0  0  0  0  0  0  0  0  0  0
   -4.9380    0.5779    1.5622 N   0  0  0  0  0  0  0  0  0  0  0  0
   -1.9669   -0.6191    3.1897 N   0  0  0  0  0  0  0  0  0  0  0  0
   -3.8227   -1.4383    4.3780 N   0  0  0  0  0  0  0  0  0  0  0  0
   -2.7243    0.0316    2.2885 C   0  0  0  0  0  0  0  0  0  0  0  0
   -2.9981    1.3924    0.3788 C   0  0  0  0  0  0  0  0  0  0  0  0
   -4.1662   -0.0654    2.4526 C   0  0  0  0  0  0  0  0  0  0  0  0
   -4.3771    1.2844    0.5574 C   0  0  0  0  0  0  0  0  0  0  0  0
   -4.6528   -0.8105    3.5103 C   0  0  0  0  0  0  0  0  0  0  0  0
   -0.7735    0.7990    1.1697 C   0  0  0  0  0  0  0  0  0  0  0  0
   -2.4670    2.1192   -0.6573 C   0  0  0  0  0  0  0  0  0  0  0  0
   -5.1764    1.9467   -0.3620 C   0  0  0  0  0  0  0  0  0  0  0  0
   -0.3648   -0.3928    0.2778 C   0  0  1  0  0  0  0  0  0  0  0  0
   -3.2807    2.7675   -1.5566 C   0  0  0  0  0  0  0  0  0  0  0  0
   -4.6714    2.6810   -1.4079 C   0  0  0  0  0  0  0  0  0  0  0  0
   -2.4936   -1.3314    4.2022 C   0  0  0  0  0  0  0  0  0  0  0  0
    0.9469   -0.2574   -0.3382 C   0  0  1  0  0  0  0  0  0  0  0  0
    2.1825   -0.3877    0.4533 C   0  0  1  0  0  0  0  0  0  0  0  0
   -2.7750    3.5708   -2.6994 C   0  0  0  0  0  0  0  0  0  0  0  0
   -5.5755    3.3803   -2.3774 C   0  0  0  0  0  0  0  0  0  0  0  0
   -1.7486   -2.4494    0.4543 C   0  0  0  0  0  0  0  0  0  0  0  0
    3.3923   -0.0863   -0.4197 C   0  0  0  0  0  0  0  0  0  0  0  0
    1.1038   -0.7755   -2.7372 C   0  0  0  0  0  0  0  0  0  0  0  0
    2.6057   -0.0187    2.8477 C   0  0  0  0  0  0  0  0  0  0  0  0
   -2.0922   -3.7350    1.0964 C   0  0  0  0  0  0  0  0  0  0  0  0
    1.1830   -1.7880   -3.8143 C   0  0  0  0  0  0  0  0  0  0  0  0
    4.4770    1.7142   -1.5838 C   0  0  0  0  0  0  0  0  0  0  0  0
    2.7118    0.9595    3.9334 C   0  0  0  0  0  0  0  0  0  0  0  0
   -3.2479   -4.4270    0.4685 C   0  0  0  0  0  0  0  0  0  0  0  0
    1.2262   -3.1775   -3.2364 C   0  0  0  0  0  0  0  0  0  0  0  0
    4.6262    3.1096   -2.0303 C   0  0  0  0  0  0  0  0  0  0  0  0
    3.0366    0.3136    5.2656 C   0  0  0  0  0  0  0  0  0  0  0  0
   -3.0732   -4.7784   -0.9724 C   0  0  0  0  0  0  0  0  0  0  0  0
    0.0087   -3.5131   -2.4068 C   0  0  0  0  0  0  0  0  0  0  0  0
    5.8622    3.2735   -2.8851 C   0  0  0  0  0  0  0  0  0  0  0  0
    4.3657   -0.4023    5.1141 C   0  0  0  0  0  0  0  0  0  0  0  0
    6.0009    4.7033   -3.3332 C   0  0  0  0  0  0  0  0  0  0  0  0
   -4.1912   -2.0002    5.1759 H   0  0  0  0  0  0  0  0  0  0  0  0
   -0.2725    1.6592    0.7833 H   0  0  0  0  0  0  0  0  0  0  0  0
   -0.3773    0.6557    2.2028 H   0  0  0  0  0  0  0  0  0  0  0  0
   -1.4094    2.1821   -0.7698 H   0  0  0  0  0  0  0  0  0  0  0  0
   -6.2450    1.8672   -0.2293 H   0  0  0  0  0  0  0  0  0  0  0  0
   -1.1003   -0.2884   -0.5733 H   0  0  0  0  0  0  0  0  0  0  0  0
    0.9768    0.7701   -0.8185 H   0  0  0  0  0  0  0  0  0  0  0  0
    2.3566   -1.4556    0.7711 H   0  0  0  0  0  0  0  0  0  0  0  0
   -1.6477    3.5392   -2.6692 H   0  0  0  0  0  0  0  0  0  0  0  0
   -3.0651    4.6451   -2.5349 H   0  0  0  0  0  0  0  0  0  0  0  0
   -3.0865    3.2018   -3.6759 H   0  0  0  0  0  0  0  0  0  0  0  0
   -5.9023    4.3648   -1.9528 H   0  0  0  0  0  0  0  0  0  0  0  0
   -6.4621    2.7276   -2.5345 H   0  0  0  0  0  0  0  0  0  0  0  0
   -5.0793    3.5052   -3.3662 H   0  0  0  0  0  0  0  0  0  0  0  0
    4.2888   -0.2883    0.2136 H   0  0  0  0  0  0  0  0  0  0  0  0
    3.4656   -0.7819   -1.2765 H   0  0  0  0  0  0  0  0  0  0  0  0
   -1.2033   -4.3935    1.0024 H   0  0  0  0  0  0  0  0  0  0  0  0
   -2.2962   -3.6167    2.1724 H   0  0  0  0  0  0  0  0  0  0  0  0
    0.2939   -1.7533   -4.4854 H   0  0  0  0  0  0  0  0  0  0  0  0
    2.0762   -1.6499   -4.4366 H   0  0  0  0  0  0  0  0  0  0  0  0
    3.4840    1.7092    3.6543 H   0  0  0  0  0  0  0  0  0  0  0  0
    1.7419    1.4887    4.0754 H   0  0  0  0  0  0  0  0  0  0  0  0
   -3.3925   -5.3888    1.0256 H   0  0  0  0  0  0  0  0  0  0  0  0
   -4.2087   -3.8831    0.5792 H   0  0  0  0  0  0  0  0  0  0  0  0
    2.1383   -3.3009   -2.5997 H   0  0  0  0  0  0  0  0  0  0  0  0
    1.2991   -3.9579   -4.0224 H   0  0  0  0  0  0  0  0  0  0  0  0
    3.7556    3.4150   -2.6554 H   0  0  0  0  0  0  0  0  0  0  0  0
    4.7554    3.7984   -1.1596 H   0  0  0  0  0  0  0  0  0  0  0  0
    2.2528   -0.4103    5.5115 H   0  0  0  0  0  0  0  0  0  0  0  0
    3.1344    1.0794    6.0586 H   0  0  0  0  0  0  0  0  0  0  0  0
   -3.2670   -3.9207   -1.6603 H   0  0  0  0  0  0  0  0  0  0  0  0
   -3.8774   -5.5278   -1.2352 H   0  0  0  0  0  0  0  0  0  0  0  0
   -2.1232   -5.2996   -1.1873 H   0  0  0  0  0  0  0  0  0  0  0  0
   -0.8213   -2.8103   -2.6289 H   0  0  0  0  0  0  0  0  0  0  0  0
   -0.3110   -4.5760   -2.5778 H   0  0  0  0  0  0  0  0  0  0  0  0
    0.2836   -3.4402   -1.3490 H   0  0  0  0  0  0  0  0  0  0  0  0
    6.7837    2.9906   -2.3270 H   0  0  0  0  0  0  0  0  0  0  0  0
    5.7811    2.6516   -3.8000 H   0  0  0  0  0  0  0  0  0  0  0  0
    4.9296   -0.2912    6.0673 H   0  0  0  0  0  0  0  0  0  0  0  0
    4.1613   -1.4712    4.9510 H   0  0  0  0  0  0  0  0  0  0  0  0
    4.9439    0.0534    4.2727 H   0  0  0  0  0  0  0  0  0  0  0  0
    6.3685    5.3782   -2.5362 H   0  0  0  0  0  0  0  0  0  0  0  0
    5.0082    5.0421   -3.7379 H   0  0  0  0  0  0  0  0  0  0  0  0
    6.6971    4.7419   -4.2066 H   0  0  0  0  0  0  0  0  0  0  0  0
 23  1  1  0
  1 31  1  0
  2 19  2  0
 27  3  1  0
  3 33  1  0
  4 26  2  0
 28  5  1  0
  5 34  1  0
  6 32  1  0
  6 37  1  0
  7 31  2  0
  8 33  2  0
  9 34  2  0
 10 37  2  0
 11 15  1  0
 11 16  1  0
 11 20  1  0
 12 17  2  0
 12 18  1  0
 13 15  2  0
 13 26  1  0
 14 19  1  0
 14 26  1  0
 15 17  1  0
 16 18  2  0
 16 21  1  0
 17 19  1  0
 18 22  1  0
 20 23  1  0
 21 24  2  0
 22 25  2  0
 23 27  1  0
 24 25  1  0
 24 29  1  0
 25 30  1  0
 27 28  1  0
 28 32  1  0
 31 35  1  0
 33 36  1  0
 34 38  1  0
 35 39  1  0
 36 40  1  0
 37 41  1  0
 38 42  1  0
 39 43  1  0
 40 44  1  0
 41 45  1  0
 42 46  1  0
 45 47  1  0
 14 48  1  0
 20 49  1  0
 20 50  1  0
 21 51  1  0
 22 52  1  0
 23 53  1  6
 27 54  1  6
 28 55  1  1
 29 56  1  0
 29 57  1  0
 29 58  1  0
 30 59  1  0
 30 60  1  0
 30 61  1  0
 32 62  1  0
 32 63  1  0
 35 64  1  0
 35 65  1  0
 36 66  1  0
 36 67  1  0
 38 68  1  0
 38 69  1  0
 39 70  1  0
 39 71  1  0
 40 72  1  0
 40 73  1  0
 41 74  1  0
 41 75  1  0
 42 76  1  0
 42 77  1  0
 43 78  1  0
 43 79  1  0
 43 80  1  0
 44 81  1  0
 44 82  1  0
 44 83  1  0
 45 84  1  0
 45 85  1  0
 46 86  1  0
 46 87  1  0
 46 88  1  0
 47 89  1  0
 47 90  1  0
 47 91  1  0
M  END

