404770578
     RDKit          3D

 29 30  0  0  1  0  0  0  0  0999 V2000
    0.9476   -0.5189    1.5371 C   0  0  0  0  0  0  0  0  0  0  0  0
   -0.3619    0.2258    1.4565 C   0  0  0  0  0  0  0  0  0  0  0  0
   -0.0461    1.6616    1.1402 C   0  0  0  0  0  0  0  0  0  0  0  0
    0.5586    1.5680   -0.2704 C   0  0  0  0  0  0  0  0  0  0  0  0
   -1.0919   -1.7267    0.0562 C   0  0  0  0  0  0  0  0  0  0  0  0
   -0.8545   -0.2591    0.0824 C   0  0  0  0  0  0  0  0  0  0  0  0
   -2.0338    0.5419   -0.3101 C   0  0  0  0  0  0  0  0  0  0  0  0
    0.4209    0.1323   -0.6664 C   0  0  0  0  0  0  0  0  0  0  0  0
    0.3781   -0.1430   -2.1065 C   0  0  0  0  0  0  0  0  0  0  0  0
    1.4135   -0.7285    0.0978 C   0  0  0  0  0  0  0  0  0  0  0  0
    2.7207   -0.3293   -0.0926 O   0  0  0  0  0  0  0  0  0  0  0  0
    0.8780   -1.4712    2.0746 H   0  0  0  0  0  0  0  0  0  0  0  0
    1.6789    0.1616    2.0305 H   0  0  0  0  0  0  0  0  0  0  0  0
   -1.0555    0.0510    2.2519 H   0  0  0  0  0  0  0  0  0  0  0  0
    0.7186    2.0443    1.8336 H   0  0  0  0  0  0  0  0  0  0  0  0
   -0.9239    2.3162    1.1513 H   0  0  0  0  0  0  0  0  0  0  0  0
    0.0681    2.2447   -0.9699 H   0  0  0  0  0  0  0  0  0  0  0  0
    1.6378    1.8913   -0.2207 H   0  0  0  0  0  0  0  0  0  0  0  0
   -0.6124   -2.2498    0.9195 H   0  0  0  0  0  0  0  0  0  0  0  0
   -0.7167   -2.2346   -0.8544 H   0  0  0  0  0  0  0  0  0  0  0  0
   -2.1906   -1.9041    0.1853 H   0  0  0  0  0  0  0  0  0  0  0  0
   -2.7616    0.5249    0.5541 H   0  0  0  0  0  0  0  0  0  0  0  0
   -2.5899    0.1068   -1.1601 H   0  0  0  0  0  0  0  0  0  0  0  0
   -1.8129    1.5815   -0.5391 H   0  0  0  0  0  0  0  0  0  0  0  0
   -0.6023    0.1220   -2.5423 H   0  0  0  0  0  0  0  0  0  0  0  0
    0.6548   -1.2098   -2.2819 H   0  0  0  0  0  0  0  0  0  0  0  0
    1.1522    0.4576   -2.6169 H   0  0  0  0  0  0  0  0  0  0  0  0
    1.2257   -1.7855   -0.1868 H   0  0  0  0  0  0  0  0  0  0  0  0
    3.2004   -1.0710   -0.5529 H   0  0  0  0  0  0  0  0  0  0  0  0
  8 10  1  0
  4  8  1  0
  6  8  1  0
  1 10  1  0
  1  2  1  0
  2  3  1  0
  2  6  1  0
  3  4  1  0
  5  6  1  0
  6  7  1  0
  8  9  1  0
 10 11  1  0
  1 12  1  0
  1 13  1  0
  2 14  1  0
  3 15  1  0
  3 16  1  0
  4 17  1  0
  4 18  1  0
  5 19  1  0
  5 20  1  0
  5 21  1  0
  7 22  1  0
  7 23  1  0
  7 24  1  0
  9 25  1  0
  9 26  1  0
  9 27  1  0
 10 28  1  0
 11 29  1  0
M  END

