404771454
     RDKit          3D

  9  9  0  0  0  0  0  0  0  0999 V2000
   -0.5369   -0.6502   -0.0743 C   0  0  0  0  0  0  0  0  0  0  0  0
    0.8448   -0.0853    0.1359 C   0  0  0  0  0  0  0  0  0  0  0  0
   -0.3121    0.8096    0.0035 C   0  0  0  0  0  0  0  0  0  0  0  0
   -0.9068   -1.2470    0.7668 H   0  0  0  0  0  0  0  0  0  0  0  0
   -0.8117   -1.0607   -1.0768 H   0  0  0  0  0  0  0  0  0  0  0  0
    1.5103   -0.2208   -0.7429 H   0  0  0  0  0  0  0  0  0  0  0  0
    1.3637   -0.2616    1.0950 H   0  0  0  0  0  0  0  0  0  0  0  0
   -0.3775    1.3848   -0.9531 H   0  0  0  0  0  0  0  0  0  0  0  0
   -0.7739    1.3313    0.8459 H   0  0  0  0  0  0  0  0  0  0  0  0
  1  2  1  0
  2  3  1  0
  1  3  1  0
  1  4  1  0
  1  5  1  0
  2  6  1  0
  2  7  1  0
  3  8  1  0
  3  9  1  0
M  END

