404771593
     RDKit          3D

 63 62  0  0  1  0  0  0  0  0999 V2000
    2.3660   -2.2056    0.8967 O   0  0  0  0  0  0  0  0  0  0  0  0
    0.6953   -0.6307    0.3116 C   0  0  0  0  0  0  0  0  0  0  0  0
   -0.1870    0.4993    0.8952 C   0  0  0  0  0  0  0  0  0  0  0  0
    1.5255   -0.0485   -0.7951 C   0  0  0  0  0  0  0  0  0  0  0  0
    1.5875   -1.1800    1.3872 C   0  0  0  0  0  0  0  0  0  0  0  0
   -1.0627   -0.0015    2.0097 C   0  0  0  0  0  0  0  0  0  0  0  0
    2.4460   -0.9520   -1.5152 C   0  0  0  0  0  0  0  0  0  0  0  0
   -1.9090    1.1494    2.5367 C   0  0  0  0  0  0  0  0  0  0  0  0
    3.1186   -0.1236   -2.6316 C   0  0  0  0  0  0  0  0  0  0  0  0
   -2.7962    1.7480    1.5059 C   0  0  0  0  0  0  0  0  0  0  0  0
    3.8926    1.0236   -2.0750 C   0  0  0  0  0  0  0  0  0  0  0  0
   -3.7771    0.7106    0.9270 C   0  0  0  0  0  0  0  0  0  0  0  0
   -4.6425    0.1482    1.9796 C   0  0  0  0  0  0  0  0  0  0  0  0
    4.9854    0.5881   -1.1223 C   0  0  0  0  0  0  0  0  0  0  0  0
   -5.5520   -0.9265    1.5538 C   0  0  0  0  0  0  0  0  0  0  0  0
    5.9613   -0.3168   -1.8454 C   0  0  0  0  0  0  0  0  0  0  0  0
   -6.5845   -0.7648    0.5414 C   0  0  0  0  0  0  0  0  0  0  0  0
    7.0414   -0.7249   -0.8359 C   0  0  0  0  0  0  0  0  0  0  0  0
   -6.2295   -0.4729   -0.8667 C   0  0  0  0  0  0  0  0  0  0  0  0
    7.7469    0.5142   -0.3220 C   0  0  0  0  0  0  0  0  0  0  0  0
   -7.5504   -0.4144   -1.6817 C   0  0  0  0  0  0  0  0  0  0  0  0
    3.1212   -2.4371    1.4888 H   0  0  0  0  0  0  0  0  0  0  0  0
    0.0291   -1.4307   -0.0498 H   0  0  0  0  0  0  0  0  0  0  0  0
   -0.8140    0.8053    0.0168 H   0  0  0  0  0  0  0  0  0  0  0  0
    0.4134    1.3670    1.1796 H   0  0  0  0  0  0  0  0  0  0  0  0
    2.0585    0.8756   -0.4293 H   0  0  0  0  0  0  0  0  0  0  0  0
    0.7802    0.3760   -1.5349 H   0  0  0  0  0  0  0  0  0  0  0  0
    1.0118   -1.5854    2.2677 H   0  0  0  0  0  0  0  0  0  0  0  0
    2.2328   -0.3246    1.7176 H   0  0  0  0  0  0  0  0  0  0  0  0
   -1.8028   -0.7459    1.6080 H   0  0  0  0  0  0  0  0  0  0  0  0
   -0.4878   -0.4521    2.8372 H   0  0  0  0  0  0  0  0  0  0  0  0
    1.8907   -1.7445   -2.0480 H   0  0  0  0  0  0  0  0  0  0  0  0
    3.2509   -1.4214   -0.9092 H   0  0  0  0  0  0  0  0  0  0  0  0
   -1.1908    1.9539    2.8630 H   0  0  0  0  0  0  0  0  0  0  0  0
   -2.4118    0.8153    3.4454 H   0  0  0  0  0  0  0  0  0  0  0  0
    2.2571    0.3074   -3.2030 H   0  0  0  0  0  0  0  0  0  0  0  0
    3.7420   -0.7608   -3.2628 H   0  0  0  0  0  0  0  0  0  0  0  0
   -3.4002    2.5805    1.8665 H   0  0  0  0  0  0  0  0  0  0  0  0
   -2.2001    2.1105    0.6530 H   0  0  0  0  0  0  0  0  0  0  0  0
    3.2800    1.8272   -1.6619 H   0  0  0  0  0  0  0  0  0  0  0  0
    4.4367    1.4906   -2.9434 H   0  0  0  0  0  0  0  0  0  0  0  0
   -3.2918   -0.0234    0.3069 H   0  0  0  0  0  0  0  0  0  0  0  0
   -4.4200    1.3677    0.2703 H   0  0  0  0  0  0  0  0  0  0  0  0
   -5.2223    1.0144    2.4683 H   0  0  0  0  0  0  0  0  0  0  0  0
   -4.0243   -0.2777    2.8458 H   0  0  0  0  0  0  0  0  0  0  0  0
    4.6106    0.0501   -0.2475 H   0  0  0  0  0  0  0  0  0  0  0  0
    5.5122    1.5095   -0.7997 H   0  0  0  0  0  0  0  0  0  0  0  0
   -4.8699   -1.7924    1.1968 H   0  0  0  0  0  0  0  0  0  0  0  0
   -6.0324   -1.4360    2.4664 H   0  0  0  0  0  0  0  0  0  0  0  0
    6.4006    0.2494   -2.6668 H   0  0  0  0  0  0  0  0  0  0  0  0
    5.4380   -1.2282   -2.1607 H   0  0  0  0  0  0  0  0  0  0  0  0
   -7.2693   -1.6832    0.5494 H   0  0  0  0  0  0  0  0  0  0  0  0
   -7.2530    0.1165    0.8744 H   0  0  0  0  0  0  0  0  0  0  0  0
    7.7248   -1.4309   -1.3073 H   0  0  0  0  0  0  0  0  0  0  0  0
    6.5168   -1.1880    0.0200 H   0  0  0  0  0  0  0  0  0  0  0  0
   -5.7357    0.4557   -1.0976 H   0  0  0  0  0  0  0  0  0  0  0  0
   -5.6525   -1.3511   -1.2573 H   0  0  0  0  0  0  0  0  0  0  0  0
    7.2627    0.9406    0.5712 H   0  0  0  0  0  0  0  0  0  0  0  0
    8.8095    0.3272   -0.1201 H   0  0  0  0  0  0  0  0  0  0  0  0
    7.7007    1.3097   -1.1056 H   0  0  0  0  0  0  0  0  0  0  0  0
   -8.0504    0.5318   -1.3757 H   0  0  0  0  0  0  0  0  0  0  0  0
   -8.1156   -1.3131   -1.4362 H   0  0  0  0  0  0  0  0  0  0  0  0
   -7.3111   -0.4200   -2.7503 H   0  0  0  0  0  0  0  0  0  0  0  0
  1  5  1  0
  2  3  1  0
  2  4  1  0
  2  5  1  0
  3  6  1  0
  4  7  1  0
  6  8  1  0
  7  9  1  0
  8 10  1  0
  9 11  1  0
 10 12  1  0
 11 14  1  0
 12 13  1  0
 13 15  1  0
 14 16  1  0
 15 17  1  0
 16 18  1  0
 17 19  1  0
 18 20  1  0
 19 21  1  0
  1 22  1  0
  2 23  1  0
  3 24  1  0
  3 25  1  0
  4 26  1  0
  4 27  1  0
  5 28  1  0
  5 29  1  0
  6 30  1  0
  6 31  1  0
  7 32  1  0
  7 33  1  0
  8 34  1  0
  8 35  1  0
  9 36  1  0
  9 37  1  0
 10 38  1  0
 10 39  1  0
 11 40  1  0
 11 41  1  0
 12 42  1  0
 12 43  1  0
 13 44  1  0
 13 45  1  0
 14 46  1  0
 14 47  1  0
 15 48  1  0
 15 49  1  0
 16 50  1  0
 16 51  1  0
 17 52  1  0
 17 53  1  0
 18 54  1  0
 18 55  1  0
 19 56  1  0
 19 57  1  0
 20 58  1  0
 20 59  1  0
 20 60  1  0
 21 61  1  0
 21 62  1  0
 21 63  1  0
M  END

