404770295
     RDKit          3D

 86 92  0  0  1  0  0  0  0  0999 V2000
   -3.4702   -3.2278    1.5165 C   0  0  0  0  0  0  0  0  0  0  0  0
   -5.1391   -3.0739   -0.2188 C   0  0  0  0  0  0  0  0  0  0  0  0
   -0.1547    1.8672   -5.9226 C   0  0  0  0  0  0  0  0  0  0  0  0
   -3.6085   -0.0613   -2.9193 C   0  0  0  0  0  0  0  0  0  0  0  0
    8.9313    2.0326    1.8401 C   0  0  0  0  0  0  0  0  0  0  0  0
   -6.8184    0.7423    3.7061 C   0  0  0  0  0  0  0  0  0  0  0  0
   -5.6276    1.3771    3.9792 C   0  0  0  0  0  0  0  0  0  0  0  0
   -7.1611    0.4889    2.3903 C   0  0  0  0  0  0  0  0  0  0  0  0
   -4.8035    1.7440    2.9387 C   0  0  0  0  0  0  0  0  0  0  0  0
   -6.2924    0.8817    1.3655 C   0  0  0  0  0  0  0  0  0  0  0  0
    6.2058   -2.2039    2.0857 C   0  0  0  0  0  0  0  0  0  0  0  0
    7.2532   -2.3298    3.0023 C   0  0  0  0  0  0  0  0  0  0  0  0
   -1.0963    1.5405   -3.5952 C   0  0  0  0  0  0  0  0  0  0  0  0
    0.1343    0.2005    0.3658 C   0  0  0  0  0  0  0  0  0  0  0  0
    7.0451   -0.0479    1.5227 C   0  0  0  0  0  0  0  0  0  0  0  0
    5.0709   -0.8654    0.3278 C   0  0  0  0  0  0  0  0  0  0  0  0
   -2.7102   -1.8855   -1.5890 C   0  0  0  0  0  0  0  0  0  0  0  0
    1.5696    1.3524   -1.3516 C   0  0  0  0  0  0  0  0  0  0  0  0
   -4.2299    1.8682    0.5003 C   0  0  0  0  0  0  0  0  0  0  0  0
    2.1289    1.4280    1.0916 C   0  0  0  0  0  0  0  0  0  0  0  0
   -3.8510   -2.5914    0.4388 C   0  0  0  0  0  0  0  0  0  0  0  0
   -0.0876    1.5609   -4.4370 C   0  0  0  0  0  0  0  0  0  0  0  0
   -2.3218   -0.6582   -2.3867 C   0  0  2  0  0  0  0  0  0  0  0  0
   -5.0987    1.5159    1.6229 C   0  0  0  0  0  0  0  0  0  0  0  0
    6.0909   -1.0693    1.3397 C   0  0  0  0  0  0  0  0  0  0  0  0
    1.1638    0.9240    0.0318 C   0  0  0  0  0  0  0  0  0  0  0  0
   -0.9545   -0.4385   -0.3837 C   0  0  1  0  0  0  0  0  0  0  0  0
    8.1976   -1.3227    3.1827 C   0  0  0  0  0  0  0  0  0  0  0  0
    8.0737   -0.1820    2.4272 C   0  0  0  0  0  0  0  0  0  0  0  0
   -0.6651    1.2089   -2.2471 C   0  0  2  0  0  0  0  0  0  0  0  0
    3.7351   -0.4320    0.7989 C   0  0  0  0  0  0  0  0  0  0  0  0
    1.1204    1.2369   -3.7071 C   0  0  0  0  0  0  0  0  0  0  0  0
   -2.0542   -0.9025    0.6105 C   0  0  2  0  0  0  0  0  0  0  0  0
    0.7156    0.6921   -2.3750 C   0  0  1  0  0  0  0  0  0  0  0  0
   -3.1514   -1.4630   -0.1845 C   0  0  1  0  0  0  0  0  0  0  0  0
   -3.3460    0.7219    0.0467 C   0  0  1  0  0  0  0  0  0  0  0  0
   -1.6079    0.3443   -1.4541 C   0  0  1  0  0  0  0  0  0  0  0  0
    9.2358   -1.4549    4.0940 O   0  0  0  0  0  0  0  0  0  0  0  0
    2.9255   -1.2671    1.2674 O   0  0  0  0  0  0  0  0  0  0  0  0
    2.2846    1.3930   -4.1340 O   0  0  0  0  0  0  0  0  0  0  0  0
    0.8682   -0.6677   -2.4537 O   0  0  0  0  0  0  0  0  0  0  0  0
    9.0115    0.8312    2.5987 O   0  0  0  0  0  0  0  0  0  0  0  0
    3.3701    0.8793    0.7268 O   0  0  0  0  0  0  0  0  0  0  0  0
   -2.5631    0.3323    1.1070 O   0  0  0  0  0  0  0  0  0  0  0  0
   -4.0695   -0.3721   -0.3422 O   0  0  0  0  0  0  0  0  0  0  0  0
   -2.6191    1.1995   -1.0277 O   0  0  0  0  0  0  0  0  0  0  0  0
   -4.0830   -4.0620    1.8883 H   0  0  0  0  0  0  0  0  0  0  0  0
   -2.5916   -3.0210    2.0999 H   0  0  0  0  0  0  0  0  0  0  0  0
   -5.5494   -2.2478   -0.8192 H   0  0  0  0  0  0  0  0  0  0  0  0
   -5.8884   -3.3073    0.5616 H   0  0  0  0  0  0  0  0  0  0  0  0
   -4.9416   -3.9844   -0.7987 H   0  0  0  0  0  0  0  0  0  0  0  0
   -1.2240    1.8891   -6.2105 H   0  0  0  0  0  0  0  0  0  0  0  0
    0.3518    1.1119   -6.5196 H   0  0  0  0  0  0  0  0  0  0  0  0
    0.2953    2.8831   -6.1167 H   0  0  0  0  0  0  0  0  0  0  0  0
   -4.4796   -0.6933   -2.6041 H   0  0  0  0  0  0  0  0  0  0  0  0
   -3.6279   -0.0782   -4.0268 H   0  0  0  0  0  0  0  0  0  0  0  0
   -3.8233    0.9393   -2.4940 H   0  0  0  0  0  0  0  0  0  0  0  0
    8.0316    2.5837    2.1535 H   0  0  0  0  0  0  0  0  0  0  0  0
    9.8173    2.6541    1.9833 H   0  0  0  0  0  0  0  0  0  0  0  0
    8.8471    1.8113    0.7492 H   0  0  0  0  0  0  0  0  0  0  0  0
   -7.4589    0.4592    4.5295 H   0  0  0  0  0  0  0  0  0  0  0  0
   -5.3145    1.6000    4.9900 H   0  0  0  0  0  0  0  0  0  0  0  0
   -8.0973   -0.0123    2.2025 H   0  0  0  0  0  0  0  0  0  0  0  0
   -3.8796    2.2406    3.1812 H   0  0  0  0  0  0  0  0  0  0  0  0
   -6.6411    0.6426    0.3623 H   0  0  0  0  0  0  0  0  0  0  0  0
    5.5213   -3.0332    2.0148 H   0  0  0  0  0  0  0  0  0  0  0  0
    7.3376   -3.2216    3.5801 H   0  0  0  0  0  0  0  0  0  0  0  0
   -2.1046    1.7558   -3.9172 H   0  0  0  0  0  0  0  0  0  0  0  0
    0.0848    0.0452    1.4604 H   0  0  0  0  0  0  0  0  0  0  0  0
    6.9772    0.8678    0.9429 H   0  0  0  0  0  0  0  0  0  0  0  0
    5.4437   -0.1132   -0.4407 H   0  0  0  0  0  0  0  0  0  0  0  0
    4.9450   -1.7929   -0.3282 H   0  0  0  0  0  0  0  0  0  0  0  0
   -1.9704   -2.6619   -1.5045 H   0  0  0  0  0  0  0  0  0  0  0  0
   -3.6235   -2.3786   -2.0396 H   0  0  0  0  0  0  0  0  0  0  0  0
    2.6466    1.2910   -1.5083 H   0  0  0  0  0  0  0  0  0  0  0  0
    1.3230    2.4571   -1.3766 H   0  0  0  0  0  0  0  0  0  0  0  0
   -4.8455    2.1705   -0.3598 H   0  0  0  0  0  0  0  0  0  0  0  0
   -3.5515    2.7342    0.7292 H   0  0  0  0  0  0  0  0  0  0  0  0
    2.1456    2.5136    1.1457 H   0  0  0  0  0  0  0  0  0  0  0  0
    1.7689    0.9914    2.0463 H   0  0  0  0  0  0  0  0  0  0  0  0
   -1.7053   -0.9635   -3.2265 H   0  0  0  0  0  0  0  0  0  0  0  0
   -0.6010   -1.4309   -0.8138 H   0  0  0  0  0  0  0  0  0  0  0  0
   -0.6247    2.1981   -1.6863 H   0  0  0  0  0  0  0  0  0  0  0  0
   -1.6124   -1.4953    1.4046 H   0  0  0  0  0  0  0  0  0  0  0  0
    9.3730   -2.2551    4.6612 H   0  0  0  0  0  0  0  0  0  0  0  0
    1.6993   -0.9339   -1.9809 H   0  0  0  0  0  0  0  0  0  0  0  0
  6  7  2  0
  6  8  1  0
  7  9  1  0
  8 10  2  0
 11 12  2  0
  1 21  2  3
  2 21  1  0
  3 22  1  0
 13 22  2  0
  4 23  1  0
 23 17  1  0
  9 24  2  0
 10 24  1  0
 19 24  1  0
 11 25  1  0
 15 25  2  0
 16 25  1  0
 14 26  2  0
 18 26  1  0
 20 26  1  0
 14 27  1  0
 12 28  1  0
 15 29  1  0
 28 29  2  0
 13 30  1  0
 16 31  1  0
 22 32  1  0
 27 33  1  0
 18 34  1  0
 30 34  1  0
 32 34  1  0
 17 35  1  0
 35 21  1  1
 33 35  1  0
 36 19  1  1
 23 37  1  0
 27 37  1  0
 30 37  1  0
 28 38  1  0
 31 39  2  0
 32 40  2  0
 34 41  1  6
  5 42  1  0
 29 42  1  0
 20 43  1  0
 31 43  1  0
 33 44  1  0
 36 44  1  0
 35 45  1  0
 36 45  1  0
 36 46  1  0
 37 46  1  1
  1 47  1  0
  1 48  1  0
  2 49  1  0
  2 50  1  0
  2 51  1  0
  3 52  1  0
  3 53  1  0
  3 54  1  0
  4 55  1  0
  4 56  1  0
  4 57  1  0
  5 58  1  0
  5 59  1  0
  5 60  1  0
  6 61  1  0
  7 62  1  0
  8 63  1  0
  9 64  1  0
 10 65  1  0
 11 66  1  0
 12 67  1  0
 13 68  1  0
 14 69  1  0
 15 70  1  0
 16 71  1  0
 16 72  1  0
 17 73  1  0
 17 74  1  0
 18 75  1  0
 18 76  1  0
 19 77  1  0
 19 78  1  0
 20 79  1  0
 20 80  1  0
 23 81  1  6
 27 82  1  6
 30 83  1  1
 33 84  1  1
 38 85  1  0
 41 86  1  0
M  END

