404772400
     RDKit          3D

 72 76  0  0  1  0  0  0  0  0999 V2000
   -6.9734    0.0039   -1.7024 C   0  0  0  0  0  0  0  0  0  0  0  0
   -5.7176    0.2089   -1.1011 O   0  0  0  0  0  0  0  0  0  0  0  0
   -5.9048    0.7023    0.1777 C   0  0  2  0  0  0  0  0  0  0  0  0
   -5.5087    2.2231    0.0159 C   0  0  0  0  0  0  0  0  0  0  0  0
   -5.7465    2.8694    1.2095 O   0  0  0  0  0  0  0  0  0  0  0  0
   -4.8882    2.4936    2.2161 C   0  0  0  0  0  0  0  0  0  0  0  0
   -4.9682    0.9796    2.4411 C   0  0  0  0  0  0  0  0  0  0  0  0
   -4.8949    0.2130    1.1854 C   0  0  2  0  0  0  0  0  0  0  0  0
   -3.6067    0.2961    0.5790 N   0  0  0  0  0  0  0  0  0  0  0  0
   -3.1824   -0.8383   -0.1671 C   0  0  2  0  0  0  0  0  0  0  0  0
   -2.7114   -1.9464    0.8085 C   0  0  0  0  0  0  0  0  0  0  0  0
   -1.2350   -1.4577    1.0201 C   0  0  0  0  0  0  0  0  0  0  0  0
   -0.7755   -1.1851   -0.3424 C   0  0  2  0  0  0  0  0  0  0  0  0
   -2.0406   -0.5906   -1.0602 C   0  0  0  0  0  0  0  0  0  0  0  0
   -0.5264   -2.4733   -1.1173 C   0  0  0  0  0  0  0  0  0  0  0  0
   -0.0312   -2.0874   -2.4944 C   0  0  0  0  0  0  0  0  0  0  0  0
    0.2819   -3.5101   -0.4553 C   0  0  0  0  0  0  0  0  0  0  0  0
    0.2718   -0.2051   -0.5384 C   0  0  0  0  0  0  0  0  0  0  0  0
   -0.1669    0.9157   -1.0607 O   0  0  0  0  0  0  0  0  0  0  0  0
    1.6332   -0.1943   -0.3087 N   0  0  0  0  0  0  0  0  0  0  0  0
    2.4615    0.9500   -0.8097 C   0  0  0  0  0  0  0  0  0  0  0  0
    3.8236    0.3513   -1.0488 C   0  0  2  0  0  0  0  0  0  0  0  0
    3.5580   -1.1257   -0.9562 C   0  0  0  0  0  0  0  0  0  0  0  0
    2.6428   -1.0031    0.2984 C   0  0  1  0  0  0  0  0  0  0  0  0
    3.6049   -0.2002    1.1577 C   0  0  0  0  0  0  0  0  0  0  0  0
    4.4789    0.5297    0.2727 N   0  0  0  0  0  0  0  0  0  0  0  0
    5.6376    1.3013    0.4786 C   0  0  0  0  0  0  0  0  0  0  0  0
    5.5043    2.4921    1.0862 N   0  0  0  0  0  0  0  0  0  0  0  0
    6.5295    3.3285    1.2852 C   0  0  0  0  0  0  0  0  0  0  0  0
    7.7520    2.9715    0.8673 N   0  0  0  0  0  0  0  0  0  0  0  0
    7.9957    1.7961    0.2518 C   0  0  0  0  0  0  0  0  0  0  0  0
    6.9143    0.9590    0.0592 C   0  0  0  0  0  0  0  0  0  0  0  0
    9.3673    1.5134   -0.1765 C   0  0  0  0  0  0  0  0  0  0  0  0
   10.1999    1.6550    0.9474 F   0  0  0  0  0  0  0  0  0  0  0  0
    9.7937    2.4679   -1.1028 F   0  0  0  0  0  0  0  0  0  0  0  0
    9.5411    0.2551   -0.6630 F   0  0  0  0  0  0  0  0  0  0  0  0
   -7.5190   -0.7023   -1.0875 H   0  0  0  0  0  0  0  0  0  0  0  0
   -6.8996   -0.4121   -2.7216 H   0  0  0  0  0  0  0  0  0  0  0  0
   -7.5049    0.9933   -1.7921 H   0  0  0  0  0  0  0  0  0  0  0  0
   -6.9507    0.7047    0.4997 H   0  0  0  0  0  0  0  0  0  0  0  0
   -4.4084    2.1696   -0.1969 H   0  0  0  0  0  0  0  0  0  0  0  0
   -6.0893    2.6758   -0.7836 H   0  0  0  0  0  0  0  0  0  0  0  0
   -3.8501    2.8245    2.0760 H   0  0  0  0  0  0  0  0  0  0  0  0
   -5.2430    2.9818    3.1380 H   0  0  0  0  0  0  0  0  0  0  0  0
   -6.0005    0.8235    2.8902 H   0  0  0  0  0  0  0  0  0  0  0  0
   -4.2053    0.7091    3.1949 H   0  0  0  0  0  0  0  0  0  0  0  0
   -5.1400   -0.8688    1.4581 H   0  0  0  0  0  0  0  0  0  0  0  0
   -2.8843    0.7784    1.1218 H   0  0  0  0  0  0  0  0  0  0  0  0
   -4.0767   -1.2830   -0.6622 H   0  0  0  0  0  0  0  0  0  0  0  0
   -3.2294   -1.8816    1.7588 H   0  0  0  0  0  0  0  0  0  0  0  0
   -2.6714   -2.9201    0.3617 H   0  0  0  0  0  0  0  0  0  0  0  0
   -0.7660   -2.2228    1.6165 H   0  0  0  0  0  0  0  0  0  0  0  0
   -1.3494   -0.5375    1.6584 H   0  0  0  0  0  0  0  0  0  0  0  0
   -2.2340   -1.1718   -2.0166 H   0  0  0  0  0  0  0  0  0  0  0  0
   -1.8835    0.4314   -1.3709 H   0  0  0  0  0  0  0  0  0  0  0  0
   -1.5488   -2.9224   -1.3043 H   0  0  0  0  0  0  0  0  0  0  0  0
    0.9177   -2.6382   -2.6925 H   0  0  0  0  0  0  0  0  0  0  0  0
    0.1493   -0.9732   -2.5392 H   0  0  0  0  0  0  0  0  0  0  0  0
   -0.7332   -2.3288   -3.3106 H   0  0  0  0  0  0  0  0  0  0  0  0
    1.2782   -3.6237   -0.9511 H   0  0  0  0  0  0  0  0  0  0  0  0
   -0.1926   -4.5360   -0.5081 H   0  0  0  0  0  0  0  0  0  0  0  0
    0.4757   -3.3490    0.6210 H   0  0  0  0  0  0  0  0  0  0  0  0
    2.5138    1.6862    0.0050 H   0  0  0  0  0  0  0  0  0  0  0  0
    2.0049    1.3852   -1.7252 H   0  0  0  0  0  0  0  0  0  0  0  0
    4.3900    0.7246   -1.8605 H   0  0  0  0  0  0  0  0  0  0  0  0
    4.4410   -1.7307   -0.7519 H   0  0  0  0  0  0  0  0  0  0  0  0
    2.9451   -1.4659   -1.8110 H   0  0  0  0  0  0  0  0  0  0  0  0
    2.3802   -1.9600    0.6917 H   0  0  0  0  0  0  0  0  0  0  0  0
    3.0695    0.5599    1.7742 H   0  0  0  0  0  0  0  0  0  0  0  0
    4.1547   -0.9081    1.8255 H   0  0  0  0  0  0  0  0  0  0  0  0
    6.4361    4.2941    1.7625 H   0  0  0  0  0  0  0  0  0  0  0  0
    7.1106    0.0344   -0.4234 H   0  0  0  0  0  0  0  0  0  0  0  0
  1  2  1  0
  3  2  1  0
  3  4  1  0
  4  5  1  0
  5  6  1  0
  6  7  1  0
  7  8  1  0
  3  8  1  0
  8  9  1  0
 10  9  1  0
 10 11  1  0
 11 12  1  0
 12 13  1  0
 13 14  1  0
 10 14  1  0
 13 15  1  0
 15 16  1  0
 15 17  1  0
 13 18  1  1
 18 19  2  0
 18 20  1  0
 20 21  1  0
 21 22  1  0
 22 23  1  0
 24 23  1  0
 20 24  1  0
 24 25  1  0
 25 26  1  0
 22 26  1  0
 26 27  1  0
 27 28  2  0
 28 29  1  0
 29 30  2  0
 30 31  1  0
 31 32  2  0
 27 32  1  0
 31 33  1  0
 33 34  1  0
 33 35  1  0
 33 36  1  0
  1 37  1  0
  1 38  1  0
  1 39  1  0
  3 40  1  1
  4 41  1  0
  4 42  1  0
  6 43  1  0
  6 44  1  0
  7 45  1  0
  7 46  1  0
  8 47  1  1
  9 48  1  0
 10 49  1  6
 11 50  1  0
 11 51  1  0
 12 52  1  0
 12 53  1  0
 14 54  1  0
 14 55  1  0
 15 56  1  0
 16 57  1  0
 16 58  1  0
 16 59  1  0
 17 60  1  0
 17 61  1  0
 17 62  1  0
 21 63  1  0
 21 64  1  0
 22 65  1  6
 23 66  1  0
 23 67  1  0
 24 68  1  1
 25 69  1  0
 25 70  1  0
 29 71  1  0
 32 72  1  0
M  END

