404772551
     RDKit          3D

  8  7  0  0  0  0  0  0  0  0999 V2000
   -0.8883   -0.2492    0.4209 C   0  0  0  0  0  0  0  0  0  0  0  0
    0.5357   -0.1407   -0.0339 C   0  0  0  0  0  0  0  0  0  0  0  0
    1.1229    1.0874   -0.1558 O   0  0  0  0  0  0  0  0  0  0  0  0
    1.1276   -1.2231   -0.2855 O   0  0  0  0  0  0  0  0  0  0  0  0
   -1.4416   -0.9751   -0.1782 H   0  0  0  0  0  0  0  0  0  0  0  0
   -0.8537   -0.6121    1.4554 H   0  0  0  0  0  0  0  0  0  0  0  0
   -1.3802    0.7569    0.4359 H   0  0  0  0  0  0  0  0  0  0  0  0
    1.7776    1.3559   -0.8780 H   0  0  0  0  0  0  0  0  0  0  0  0
  1  2  1  0
  2  3  1  0
  2  4  2  0
  1  5  1  0
  1  6  1  0
  1  7  1  0
  3  8  1  0
M  ISO  1   2  11
M  END

