404770021
     RDKit          3D

 51 54  0  0  0  0  0  0  0  0999 V2000
    4.2577   -1.5928    0.8752 N   0  0  0  0  0  0  0  0  0  0  0  0
    3.0373   -1.2618    0.3281 C   0  0  0  0  0  0  0  0  0  0  0  0
    2.9346   -1.3043   -1.0767 N   0  0  0  0  0  0  0  0  0  0  0  0
    4.1209   -1.6930   -1.8674 C   0  0  0  0  0  0  0  0  0  0  0  0
    5.2186   -0.7554   -1.6247 C   0  0  0  0  0  0  0  0  0  0  0  0
    5.0922    0.5466   -2.0616 C   0  0  0  0  0  0  0  0  0  0  0  0
    6.0920    1.4748   -1.8687 C   0  0  0  0  0  0  0  0  0  0  0  0
    7.2162    1.1005   -1.2395 N   0  0  0  0  0  0  0  0  0  0  0  0
    7.3882   -0.1556   -0.7949 C   0  0  0  0  0  0  0  0  0  0  0  0
    6.3873   -1.0891   -0.9869 C   0  0  0  0  0  0  0  0  0  0  0  0
    1.9840   -0.9111    1.1195 C   0  0  0  0  0  0  0  0  0  0  0  0
    2.1433   -0.8871    2.4967 C   0  0  0  0  0  0  0  0  0  0  0  0
    3.3825   -1.2250    3.0176 C   0  0  0  0  0  0  0  0  0  0  0  0
    4.4102   -1.5697    2.1960 C   0  0  0  0  0  0  0  0  0  0  0  0
    0.6745   -0.5532    0.5922 C   0  0  0  0  0  0  0  0  0  0  0  0
   -0.4091   -0.1905    1.4205 N   0  0  0  0  0  0  0  0  0  0  0  0
   -1.7201    0.1639    0.9902 C   0  0  0  0  0  0  0  0  0  0  0  0
   -2.5562    0.8750    1.8702 C   0  0  0  0  0  0  0  0  0  0  0  0
   -3.8315    1.2404    1.5524 C   0  0  0  0  0  0  0  0  0  0  0  0
   -4.3780    0.9249    0.3264 C   0  0  0  0  0  0  0  0  0  0  0  0
   -3.5745    0.2341   -0.5366 C   0  0  0  0  0  0  0  0  0  0  0  0
   -2.2653   -0.1494   -0.2282 C   0  0  0  0  0  0  0  0  0  0  0  0
   -4.3042    0.0023   -1.7604 N   0  0  0  0  0  0  0  0  0  0  0  0
   -5.3227    1.0659   -1.8037 C   0  0  0  0  0  0  0  0  0  0  0  0
   -5.6730    1.1396   -0.3380 C   0  0  0  0  0  0  0  0  0  0  0  0
   -6.5635   -0.0580   -0.0375 C   0  0  0  0  0  0  0  0  0  0  0  0
   -6.3324    2.4364    0.0335 C   0  0  0  0  0  0  0  0  0  0  0  0
    0.4296   -0.5461   -0.6466 O   0  0  0  0  0  0  0  0  0  0  0  0
    2.1101   -1.0914   -1.6402 H   0  0  0  0  0  0  0  0  0  0  0  0
    4.3977   -2.7439   -1.5644 H   0  0  0  0  0  0  0  0  0  0  0  0
    3.8739   -1.7642   -2.9404 H   0  0  0  0  0  0  0  0  0  0  0  0
    4.1853    0.8479   -2.5690 H   0  0  0  0  0  0  0  0  0  0  0  0
    5.9711    2.4928   -2.2205 H   0  0  0  0  0  0  0  0  0  0  0  0
    8.3184   -0.3857   -0.2974 H   0  0  0  0  0  0  0  0  0  0  0  0
    6.5381   -2.0856   -0.6320 H   0  0  0  0  0  0  0  0  0  0  0  0
    1.3602   -0.6211    3.1889 H   0  0  0  0  0  0  0  0  0  0  0  0
    3.5233   -1.2106    4.1033 H   0  0  0  0  0  0  0  0  0  0  0  0
    5.3796   -1.8318    2.6469 H   0  0  0  0  0  0  0  0  0  0  0  0
   -0.2693   -0.1748    2.4494 H   0  0  0  0  0  0  0  0  0  0  0  0
   -2.1382    1.1303    2.8374 H   0  0  0  0  0  0  0  0  0  0  0  0
   -4.4803    1.7907    2.2318 H   0  0  0  0  0  0  0  0  0  0  0  0
   -1.6895   -0.7093   -0.9583 H   0  0  0  0  0  0  0  0  0  0  0  0
   -4.1572   -0.7363   -2.4563 H   0  0  0  0  0  0  0  0  0  0  0  0
   -6.1741    0.7843   -2.4435 H   0  0  0  0  0  0  0  0  0  0  0  0
   -4.8083    1.9823   -2.1271 H   0  0  0  0  0  0  0  0  0  0  0  0
   -5.8903   -0.9501   -0.0831 H   0  0  0  0  0  0  0  0  0  0  0  0
   -7.3046   -0.1892   -0.8513 H   0  0  0  0  0  0  0  0  0  0  0  0
   -7.0163   -0.0072    0.9592 H   0  0  0  0  0  0  0  0  0  0  0  0
   -5.6297    3.1484    0.5267 H   0  0  0  0  0  0  0  0  0  0  0  0
   -6.8076    2.8724   -0.8504 H   0  0  0  0  0  0  0  0  0  0  0  0
   -7.1312    2.1897    0.7856 H   0  0  0  0  0  0  0  0  0  0  0  0
  1  2  2  0
  1 14  1  0
  2  3  1  0
  2 11  1  0
  3  4  1  0
  4  5  1  0
  5  6  2  0
  5 10  1  0
  6  7  1  0
  7  8  2  0
  8  9  1  0
  9 10  2  0
 11 12  2  0
 11 15  1  0
 12 13  1  0
 13 14  2  0
 15 16  1  0
 15 28  2  0
 16 17  1  0
 17 18  2  0
 17 22  1  0
 18 19  1  0
 19 20  2  0
 20 21  1  0
 20 25  1  0
 21 22  2  0
 21 23  1  0
 23 24  1  0
 24 25  1  0
 25 26  1  0
 25 27  1  0
  3 29  1  0
  4 30  1  0
  4 31  1  0
  6 32  1  0
  7 33  1  0
  9 34  1  0
 10 35  1  0
 12 36  1  0
 13 37  1  0
 14 38  1  0
 16 39  1  0
 18 40  1  0
 19 41  1  0
 22 42  1  0
 23 43  1  0
 24 44  1  0
 24 45  1  0
 26 46  1  0
 26 47  1  0
 26 48  1  0
 27 49  1  0
 27 50  1  0
 27 51  1  0
M  END

