404772624
     RDKit          3D

 60 65  0  0  1  0  0  0  0  0999 V2000
    7.2441    2.5870   -1.0911 C   0  0  0  0  0  0  0  0  0  0  0  0
    7.1725    1.5145   -0.0502 C   0  0  0  0  0  0  0  0  0  0  0  0
    8.4145    0.6760   -0.1140 C   0  0  0  0  0  0  0  0  0  0  0  0
    6.0338    0.6556   -0.3084 N   0  0  0  0  0  0  0  0  0  0  0  0
    4.7777    1.4119   -0.2176 C   0  0  0  0  0  0  0  0  0  0  0  0
    3.9847    0.7488    0.8869 C   0  0  2  0  0  0  0  0  0  0  0  0
    5.1657    0.3241    1.7862 C   0  0  0  0  0  0  0  0  0  0  0  0
    5.8986   -0.4016    0.6417 C   0  0  1  0  0  0  0  0  0  0  0  0
    4.7649   -1.3049    0.1698 C   0  0  0  0  0  0  0  0  0  0  0  0
    3.5619   -0.5458    0.4391 N   0  0  0  0  0  0  0  0  0  0  0  0
    2.2347   -0.9869    0.2940 C   0  0  0  0  0  0  0  0  0  0  0  0
    1.1986   -0.1264    0.5618 C   0  0  0  0  0  0  0  0  0  0  0  0
   -0.1328   -0.5242    0.4321 C   0  0  0  0  0  0  0  0  0  0  0  0
   -0.4828   -1.7942    0.0305 C   0  0  0  0  0  0  0  0  0  0  0  0
   -1.8139   -2.2540   -0.1357 N   0  0  0  0  0  0  0  0  0  0  0  0
   -2.9889   -1.5165   -0.1400 C   0  0  0  0  0  0  0  0  0  0  0  0
   -3.0004   -0.1849   -0.0002 N   0  0  0  0  0  0  0  0  0  0  0  0
   -4.1074    0.5420   -0.0120 C   0  0  0  0  0  0  0  0  0  0  0  0
   -5.3102   -0.1385   -0.1801 C   0  0  0  0  0  0  0  0  0  0  0  0
   -5.3529   -1.4697   -0.3241 N   0  0  0  0  0  0  0  0  0  0  0  0
   -6.3319   -2.3699   -0.4971 N   0  0  0  0  0  0  0  0  0  0  0  0
   -5.8036   -3.6058   -0.5851 C   0  0  0  0  0  0  0  0  0  0  0  0
   -4.4816   -3.4991   -0.4685 N   0  0  0  0  0  0  0  0  0  0  0  0
   -4.2051   -2.1902   -0.3084 C   0  0  0  0  0  0  0  0  0  0  0  0
   -6.5337    0.6207   -0.1979 C   0  0  0  0  0  0  0  0  0  0  0  0
   -6.6224    2.0135   -0.0627 C   0  0  0  0  0  0  0  0  0  0  0  0
   -7.8717    2.3326   -0.1252 O   0  0  0  0  0  0  0  0  0  0  0  0
   -8.6330    1.2836   -0.2900 C   0  0  0  0  0  0  0  0  0  0  0  0
   -7.8227    0.1521   -0.3437 C   0  0  0  0  0  0  0  0  0  0  0  0
  -10.0725    1.2597   -0.4019 C   0  0  0  0  0  0  0  0  0  0  0  0
  -10.8066    2.4820   -0.3318 N   0  0  0  0  0  0  0  0  0  0  0  0
  -10.7077    0.1874   -0.5605 O   0  0  0  0  0  0  0  0  0  0  0  0
    0.5930   -2.6520   -0.2361 C   0  0  0  0  0  0  0  0  0  0  0  0
    1.9050   -2.2642   -0.1095 C   0  0  0  0  0  0  0  0  0  0  0  0
    8.2798    3.0276   -1.0255 H   0  0  0  0  0  0  0  0  0  0  0  0
    7.1272    2.2172   -2.1257 H   0  0  0  0  0  0  0  0  0  0  0  0
    6.5498    3.4466   -0.8751 H   0  0  0  0  0  0  0  0  0  0  0  0
    7.1369    2.0009    0.9425 H   0  0  0  0  0  0  0  0  0  0  0  0
    8.4202   -0.0518   -0.9360 H   0  0  0  0  0  0  0  0  0  0  0  0
    9.3357    1.2999   -0.2213 H   0  0  0  0  0  0  0  0  0  0  0  0
    8.5650    0.1212    0.8560 H   0  0  0  0  0  0  0  0  0  0  0  0
    4.2416    1.2088   -1.1706 H   0  0  0  0  0  0  0  0  0  0  0  0
    4.9677    2.4770   -0.0324 H   0  0  0  0  0  0  0  0  0  0  0  0
    3.2770    1.3667    1.3873 H   0  0  0  0  0  0  0  0  0  0  0  0
    4.8535   -0.4135    2.5225 H   0  0  0  0  0  0  0  0  0  0  0  0
    5.7228    1.1783    2.1597 H   0  0  0  0  0  0  0  0  0  0  0  0
    6.7833   -0.9088    0.9513 H   0  0  0  0  0  0  0  0  0  0  0  0
    4.7945   -2.2638    0.6888 H   0  0  0  0  0  0  0  0  0  0  0  0
    4.8807   -1.5217   -0.9319 H   0  0  0  0  0  0  0  0  0  0  0  0
    1.3656    0.9036    0.8868 H   0  0  0  0  0  0  0  0  0  0  0  0
   -0.8940    0.1950    0.6636 H   0  0  0  0  0  0  0  0  0  0  0  0
   -1.9030   -3.3083   -0.2701 H   0  0  0  0  0  0  0  0  0  0  0  0
   -4.0486    1.6150    0.1059 H   0  0  0  0  0  0  0  0  0  0  0  0
   -6.3099   -4.5548   -0.7254 H   0  0  0  0  0  0  0  0  0  0  0  0
   -5.7762    2.6831    0.0699 H   0  0  0  0  0  0  0  0  0  0  0  0
   -8.1480   -0.8779   -0.4736 H   0  0  0  0  0  0  0  0  0  0  0  0
  -10.4977    3.1873    0.3504 H   0  0  0  0  0  0  0  0  0  0  0  0
  -11.6255    2.6504   -0.9507 H   0  0  0  0  0  0  0  0  0  0  0  0
    0.3295   -3.6716   -0.5596 H   0  0  0  0  0  0  0  0  0  0  0  0
    2.7041   -2.9695   -0.3292 H   0  0  0  0  0  0  0  0  0  0  0  0
  1  2  1  0
  2  3  1  0
  2  4  1  0
  4  5  1  0
  5  6  1  0
  6  7  1  0
  8  7  1  0
  4  8  1  0
  8  9  1  0
  9 10  1  0
  6 10  1  0
 10 11  1  0
 11 12  2  0
 12 13  1  0
 13 14  2  0
 14 15  1  0
 15 16  1  0
 16 17  2  0
 17 18  1  0
 18 19  2  0
 19 20  1  0
 20 21  1  0
 21 22  2  0
 22 23  1  0
 23 24  2  0
 16 24  1  0
 20 24  1  0
 19 25  1  0
 25 26  2  0
 26 27  1  0
 27 28  1  0
 28 29  2  0
 25 29  1  0
 28 30  1  0
 30 31  1  0
 30 32  2  0
 14 33  1  0
 33 34  2  0
 11 34  1  0
  1 35  1  0
  1 36  1  0
  1 37  1  0
  2 38  1  0
  3 39  1  0
  3 40  1  0
  3 41  1  0
  5 42  1  0
  5 43  1  0
  6 44  1  1
  7 45  1  0
  7 46  1  0
  8 47  1  1
  9 48  1  0
  9 49  1  0
 12 50  1  0
 13 51  1  0
 15 52  1  0
 18 53  1  0
 22 54  1  0
 26 55  1  0
 29 56  1  0
 31 57  1  0
 31 58  1  0
 33 59  1  0
 34 60  1  0
M  END

