404770203
     RDKit          3D

  8  7  0  0  0  0  0  0  0  0999 V2000
   -0.9324   -0.2791    0.4401 C   0  0  0  0  0  0  0  0  0  0  0  0
    1.1101    0.5957   -0.0854 N   0  0  0  0  0  0  0  0  0  0  0  0
    0.4090   -0.2299    0.6988 O   0  0  0  0  0  0  0  0  0  0  0  0
   -1.4806    0.3989    1.1432 H   0  0  0  0  0  0  0  0  0  0  0  0
   -1.2913   -1.3167    0.6573 H   0  0  0  0  0  0  0  0  0  0  0  0
   -1.2266   -0.0346   -0.5886 H   0  0  0  0  0  0  0  0  0  0  0  0
    2.0498    0.7410    0.3844 H   0  0  0  0  0  0  0  0  0  0  0  0
    1.3621    0.1247   -1.0011 H   0  0  0  0  0  0  0  0  0  0  0  0
  1  3  1  0
  2  3  1  0
  1  4  1  0
  1  5  1  0
  1  6  1  0
  2  7  1  0
  2  8  1  0
M  END

