404770607
     RDKit          3D

 53 54  0  0  0  0  0  0  0  0999 V2000
    7.4354    2.2051    1.3060 C   0  0  0  0  0  0  0  0  0  0  0  0
   -2.9468    4.3372   -1.8815 C   0  0  0  0  0  0  0  0  0  0  0  0
   -3.3419    3.1871    0.2134 C   0  0  0  0  0  0  0  0  0  0  0  0
   -3.7599   -4.8159    1.4409 C   0  0  0  0  0  0  0  0  0  0  0  0
   -4.2607   -3.7326   -0.6943 C   0  0  0  0  0  0  0  0  0  0  0  0
    7.3399    0.8819    0.6179 C   0  0  0  0  0  0  0  0  0  0  0  0
    0.1099    0.8555   -0.7642 C   0  0  0  0  0  0  0  0  0  0  0  0
   -0.0062   -1.5794    0.4810 C   0  0  0  0  0  0  0  0  0  0  0  0
    3.5138   -0.9335    0.8243 C   0  0  0  0  0  0  0  0  0  0  0  0
   -2.6746    1.8634   -1.7967 C   0  0  0  0  0  0  0  0  0  0  0  0
   -2.4377   -2.9122    0.7054 C   0  0  0  0  0  0  0  0  0  0  0  0
   -2.4848    3.1386   -1.0389 C   0  0  0  0  0  0  0  0  0  0  0  0
   -3.8182   -3.4796    0.7343 C   0  0  0  0  0  0  0  0  0  0  0  0
    1.2572    0.2767   -0.2414 C   0  0  0  0  0  0  0  0  0  0  0  0
    3.5970    0.2942    0.2012 C   0  0  0  0  0  0  0  0  0  0  0  0
    1.2120   -0.9531    0.3902 C   0  0  0  0  0  0  0  0  0  0  0  0
   -1.1187    0.2425   -0.6817 C   0  0  0  0  0  0  0  0  0  0  0  0
   -1.1496   -1.0063   -0.0378 C   0  0  0  0  0  0  0  0  0  0  0  0
    2.4801    0.8934   -0.3264 C   0  0  0  0  0  0  0  0  0  0  0  0
    4.9202    0.9042    0.1391 C   0  0  0  0  0  0  0  0  0  0  0  0
    2.3134   -1.5263    0.9012 N   0  0  0  0  0  0  0  0  0  0  0  0
    2.6127    2.0054   -0.8797 O   0  0  0  0  0  0  0  0  0  0  0  0
    5.0170    2.0181   -0.4222 O   0  0  0  0  0  0  0  0  0  0  0  0
    6.0433    0.3185    0.6609 O   0  0  0  0  0  0  0  0  0  0  0  0
   -2.2986    0.7192   -1.1547 O   0  0  0  0  0  0  0  0  0  0  0  0
   -2.3875   -1.6463    0.0564 O   0  0  0  0  0  0  0  0  0  0  0  0
    7.4325    3.0078    0.5321 H   0  0  0  0  0  0  0  0  0  0  0  0
    6.5864    2.3502    1.9865 H   0  0  0  0  0  0  0  0  0  0  0  0
    8.3945    2.2701    1.8377 H   0  0  0  0  0  0  0  0  0  0  0  0
   -2.5335    4.3061   -2.8929 H   0  0  0  0  0  0  0  0  0  0  0  0
   -2.6155    5.2368   -1.3257 H   0  0  0  0  0  0  0  0  0  0  0  0
   -4.0655    4.3286   -1.9128 H   0  0  0  0  0  0  0  0  0  0  0  0
   -2.9523    2.5187    1.0094 H   0  0  0  0  0  0  0  0  0  0  0  0
   -4.3924    2.9759   -0.0011 H   0  0  0  0  0  0  0  0  0  0  0  0
   -3.2796    4.2196    0.6048 H   0  0  0  0  0  0  0  0  0  0  0  0
   -4.5703   -5.4890    1.0552 H   0  0  0  0  0  0  0  0  0  0  0  0
   -2.7862   -5.3237    1.2956 H   0  0  0  0  0  0  0  0  0  0  0  0
   -3.9114   -4.7128    2.5417 H   0  0  0  0  0  0  0  0  0  0  0  0
   -5.2767   -4.1623   -0.6694 H   0  0  0  0  0  0  0  0  0  0  0  0
   -4.3290   -2.7909   -1.2771 H   0  0  0  0  0  0  0  0  0  0  0  0
   -3.5862   -4.4790   -1.1446 H   0  0  0  0  0  0  0  0  0  0  0  0
    8.0117    0.1591    1.1412 H   0  0  0  0  0  0  0  0  0  0  0  0
    7.7387    0.9491   -0.4237 H   0  0  0  0  0  0  0  0  0  0  0  0
    0.2404    1.8050   -1.2480 H   0  0  0  0  0  0  0  0  0  0  0  0
   -0.0575   -2.5567    0.9796 H   0  0  0  0  0  0  0  0  0  0  0  0
    4.3761   -1.4198    1.2440 H   0  0  0  0  0  0  0  0  0  0  0  0
   -3.7941    1.7796   -1.9814 H   0  0  0  0  0  0  0  0  0  0  0  0
   -2.2582    1.9235   -2.8330 H   0  0  0  0  0  0  0  0  0  0  0  0
   -1.8045   -3.6004    0.0994 H   0  0  0  0  0  0  0  0  0  0  0  0
   -1.9849   -2.8047    1.7105 H   0  0  0  0  0  0  0  0  0  0  0  0
   -1.4482    3.2725   -0.7093 H   0  0  0  0  0  0  0  0  0  0  0  0
   -4.5511   -2.8466    1.2602 H   0  0  0  0  0  0  0  0  0  0  0  0
    2.2501   -2.4726    1.3817 H   0  0  0  0  0  0  0  0  0  0  0  0
  1  6  1  0
  2 12  1  0
  3 12  1  0
 10 12  1  0
  4 13  1  0
  5 13  1  0
 11 13  1  0
  7 14  2  0
  9 15  2  0
  8 16  2  0
 14 16  1  0
  7 17  1  0
  8 18  1  0
 17 18  2  0
 14 19  1  0
 15 19  1  0
 15 20  1  0
  9 21  1  0
 16 21  1  0
 19 22  2  0
 20 23  2  0
  6 24  1  0
 20 24  1  0
 10 25  1  0
 17 25  1  0
 11 26  1  0
 18 26  1  0
  1 27  1  0
  1 28  1  0
  1 29  1  0
  2 30  1  0
  2 31  1  0
  2 32  1  0
  3 33  1  0
  3 34  1  0
  3 35  1  0
  4 36  1  0
  4 37  1  0
  4 38  1  0
  5 39  1  0
  5 40  1  0
  5 41  1  0
  6 42  1  0
  6 43  1  0
  7 44  1  0
  8 45  1  0
  9 46  1  0
 10 47  1  0
 10 48  1  0
 11 49  1  0
 11 50  1  0
 12 51  1  0
 13 52  1  0
 21 53  1  0
M  END

