404770967
     RDKit          3D

 68 72  0  0  1  0  0  0  0  0999 V2000
    6.5650   -0.7254    1.4672 C   0  0  0  0  0  0  0  0  0  0  0  0
   -5.3590   -5.6586   -2.4942 C   0  0  0  0  0  0  0  0  0  0  0  0
    3.1021    5.0763   -3.3111 C   0  0  0  0  0  0  0  0  0  0  0  0
   -0.9874    1.7180    5.8846 C   0  0  0  0  0  0  0  0  0  0  0  0
    5.2176   -0.9832    1.2193 C   0  0  0  0  0  0  0  0  0  0  0  0
   -4.4159   -4.6487   -2.4891 C   0  0  0  0  0  0  0  0  0  0  0  0
    2.9027    4.1668   -2.2737 C   0  0  0  0  0  0  0  0  0  0  0  0
   -0.9742    1.4455    4.5242 C   0  0  0  0  0  0  0  0  0  0  0  0
    7.5187   -0.8121    0.4758 C   0  0  0  0  0  0  0  0  0  0  0  0
   -6.4678   -5.6496   -1.6814 C   0  0  0  0  0  0  0  0  0  0  0  0
    2.2668    5.0896   -4.4094 C   0  0  0  0  0  0  0  0  0  0  0  0
   -1.5847    2.8610    6.3746 C   0  0  0  0  0  0  0  0  0  0  0  0
    5.7780   -1.4164   -1.0202 C   0  0  0  0  0  0  0  0  0  0  0  0
   -5.7347   -3.6178   -0.8241 C   0  0  0  0  0  0  0  0  0  0  0  0
    1.0420    3.3026   -3.4474 C   0  0  0  0  0  0  0  0  0  0  0  0
   -2.1520    3.4535    4.1490 C   0  0  0  0  0  0  0  0  0  0  0  0
    1.0415   -1.8240    0.2603 C   0  0  0  0  0  0  0  0  0  0  0  0
   -3.0327   -0.3110   -0.5174 C   0  0  0  0  0  0  0  0  0  0  0  0
    4.8062   -1.3377   -0.0519 C   0  0  0  0  0  0  0  0  0  0  0  0
   -4.6180   -3.6021   -1.6257 C   0  0  0  0  0  0  0  0  0  0  0  0
    1.8646    3.2741   -2.3439 C   0  0  0  0  0  0  0  0  0  0  0  0
   -1.5621    2.3209    3.6454 C   0  0  0  0  0  0  0  0  0  0  0  0
    0.4041   -0.9446   -0.7611 C   0  0  2  0  0  0  0  0  0  0  0  0
    0.3966    0.4819   -0.2679 C   0  0  2  0  0  0  0  0  0  0  0  0
   -0.9801    0.6820    0.2820 C   0  0  1  0  0  0  0  0  0  0  0  0
    3.4203   -1.6203   -0.3843 C   0  0  0  0  0  0  0  0  0  0  0  0
   -3.6564   -2.4822   -1.5584 C   0  0  0  0  0  0  0  0  0  0  0  0
    1.6129    2.2923   -1.2713 C   0  0  0  0  0  0  0  0  0  0  0  0
   -1.5551    2.0436    2.1957 C   0  0  0  0  0  0  0  0  0  0  0  0
   -1.6644   -0.6489    0.0192 C   0  0  1  0  0  0  0  0  0  0  0  0
    7.0917   -1.1588   -0.7517 N   0  0  0  0  0  0  0  0  0  0  0  0
   -6.6472   -4.6047   -0.8357 N   0  0  0  0  0  0  0  0  0  0  0  0
    1.2608    4.1973   -4.4389 N   0  0  0  0  0  0  0  0  0  0  0  0
   -2.1522    3.7002    5.4920 N   0  0  0  0  0  0  0  0  0  0  0  0
    3.1478   -1.9349   -1.5689 O   0  0  0  0  0  0  0  0  0  0  0  0
   -2.6500   -2.5015   -2.3021 O   0  0  0  0  0  0  0  0  0  0  0  0
    2.3694    2.2761   -0.2687 O   0  0  0  0  0  0  0  0  0  0  0  0
   -2.1079    2.8779    1.4351 O   0  0  0  0  0  0  0  0  0  0  0  0
   -1.8101   -1.3183    1.2425 O   0  0  0  0  0  0  0  0  0  0  0  0
    2.3827   -1.5671    0.5107 O   0  0  0  0  0  0  0  0  0  0  0  0
   -3.8372   -1.4278   -0.7068 O   0  0  0  0  0  0  0  0  0  0  0  0
    0.5683    1.3940   -1.3448 O   0  0  0  0  0  0  0  0  0  0  0  0
   -0.9673    0.9138    1.6755 O   0  0  0  0  0  0  0  0  0  0  0  0
   -0.9257   -1.3141   -0.9039 O   0  0  0  0  0  0  0  0  0  0  0  0
    6.8865   -0.4489    2.4587 H   0  0  0  0  0  0  0  0  0  0  0  0
   -5.2106   -6.4863   -3.1689 H   0  0  0  0  0  0  0  0  0  0  0  0
    3.9113    5.7798   -3.2675 H   0  0  0  0  0  0  0  0  0  0  0  0
   -0.5270    1.0381    6.6038 H   0  0  0  0  0  0  0  0  0  0  0  0
    4.4647   -0.9202    1.9792 H   0  0  0  0  0  0  0  0  0  0  0  0
   -3.5457   -4.6452   -3.1196 H   0  0  0  0  0  0  0  0  0  0  0  0
    3.5337    4.1264   -1.4007 H   0  0  0  0  0  0  0  0  0  0  0  0
   -0.4986    0.5435    4.1781 H   0  0  0  0  0  0  0  0  0  0  0  0
    8.5810   -0.6096    0.6688 H   0  0  0  0  0  0  0  0  0  0  0  0
   -7.1791   -6.4686   -1.7246 H   0  0  0  0  0  0  0  0  0  0  0  0
    2.4202    5.7934   -5.2136 H   0  0  0  0  0  0  0  0  0  0  0  0
   -1.6069    3.0959    7.4433 H   0  0  0  0  0  0  0  0  0  0  0  0
    5.4763   -1.6938   -2.0286 H   0  0  0  0  0  0  0  0  0  0  0  0
   -5.8826   -2.7883   -0.1487 H   0  0  0  0  0  0  0  0  0  0  0  0
    0.2185    2.5826   -3.4859 H   0  0  0  0  0  0  0  0  0  0  0  0
   -2.6131    4.1405    3.4591 H   0  0  0  0  0  0  0  0  0  0  0  0
    0.4964   -1.6607    1.2321 H   0  0  0  0  0  0  0  0  0  0  0  0
    0.8231   -2.8781   -0.0099 H   0  0  0  0  0  0  0  0  0  0  0  0
   -3.5563    0.4155    0.1606 H   0  0  0  0  0  0  0  0  0  0  0  0
   -2.9332    0.2859   -1.4797 H   0  0  0  0  0  0  0  0  0  0  0  0
    0.8820   -1.0491   -1.7589 H   0  0  0  0  0  0  0  0  0  0  0  0
    1.1564    0.6147    0.5282 H   0  0  0  0  0  0  0  0  0  0  0  0
   -1.5125    1.5254   -0.2189 H   0  0  0  0  0  0  0  0  0  0  0  0
   -2.7025   -1.7511    1.3146 H   0  0  0  0  0  0  0  0  0  0  0  0
  1  5  2  0
  2  6  2  0
  3  7  2  0
  4  8  2  0
  1  9  1  0
  2 10  1  0
  3 11  1  0
  4 12  1  0
  5 19  1  0
 13 19  2  0
  6 20  1  0
 14 20  2  0
  7 21  1  0
 15 21  2  0
  8 22  1  0
 16 22  2  0
 23 17  1  0
 23 24  1  0
 24 25  1  0
 19 26  1  0
 20 27  1  0
 21 28  1  0
 22 29  1  0
 30 18  1  0
 25 30  1  0
  9 31  2  0
 13 31  1  0
 10 32  2  0
 14 32  1  0
 11 33  2  0
 15 33  1  0
 12 34  2  0
 16 34  1  0
 26 35  2  0
 27 36  2  0
 28 37  2  0
 29 38  2  0
 30 39  1  1
 17 40  1  0
 26 40  1  0
 18 41  1  0
 27 41  1  0
 24 42  1  0
 28 42  1  0
 25 43  1  0
 29 43  1  0
 23 44  1  0
 30 44  1  0
  1 45  1  0
  2 46  1  0
  3 47  1  0
  4 48  1  0
  5 49  1  0
  6 50  1  0
  7 51  1  0
  8 52  1  0
  9 53  1  0
 10 54  1  0
 11 55  1  0
 12 56  1  0
 13 57  1  0
 14 58  1  0
 15 59  1  0
 16 60  1  0
 17 61  1  0
 17 62  1  0
 18 63  1  0
 18 64  1  0
 23 65  1  6
 24 66  1  1
 25 67  1  6
 39 68  1  0
M  END

