404770382
     RDKit          3D

 37 37  0  0  1  0  0  0  0  0999 V2000
    0.8632    0.5661    0.4804 C   0  0  0  0  0  0  0  0  0  0  0  0
    1.7757   -0.1356    0.9889 N   0  0  0  0  0  0  0  0  0  0  0  0
   -0.5081    0.6187    0.9427 N   0  0  0  0  0  0  0  0  0  0  0  0
    1.1917    1.4813   -0.5887 N   0  0  0  0  0  0  0  0  0  0  0  0
    3.1084   -0.2309    0.5481 C   0  0  0  0  0  0  0  0  0  0  0  0
   -1.3237   -0.4359    0.3350 C   0  0  0  0  0  0  0  0  0  0  0  0
    1.1467    2.8554   -0.2252 C   0  0  0  0  0  0  0  0  0  0  0  0
    3.4806   -1.5239    0.1043 C   0  0  0  0  0  0  0  0  0  0  0  0
    4.0375    0.7565    0.4076 C   0  0  0  0  0  0  0  0  0  0  0  0
   -2.7805   -0.3079    0.4978 C   0  0  0  0  0  0  0  0  0  0  0  0
   -1.0027   -0.3252   -1.1651 C   0  0  0  0  0  0  0  0  0  0  0  0
    1.0864    3.9726    0.0949 N   0  0  0  0  0  0  0  0  0  0  0  0
    4.7323   -1.7113   -0.4301 C   0  0  0  0  0  0  0  0  0  0  0  0
    5.2911    0.5250   -0.1436 C   0  0  0  0  0  0  0  0  0  0  0  0
   -3.3149   -0.2838    1.8855 C   0  0  0  0  0  0  0  0  0  0  0  0
   -3.4261   -1.4791   -0.2326 C   0  0  0  0  0  0  0  0  0  0  0  0
   -3.2218    0.9376   -0.2472 C   0  0  0  0  0  0  0  0  0  0  0  0
    5.6270   -0.7181   -0.5607 N   0  0  0  0  0  0  0  0  0  0  0  0
   -0.8402    1.3143    1.6191 H   0  0  0  0  0  0  0  0  0  0  0  0
    1.4315    1.1330   -1.5090 H   0  0  0  0  0  0  0  0  0  0  0  0
   -0.9514   -1.4373    0.6408 H   0  0  0  0  0  0  0  0  0  0  0  0
    2.7852   -2.3478    0.1787 H   0  0  0  0  0  0  0  0  0  0  0  0
    3.7931    1.7421    0.7333 H   0  0  0  0  0  0  0  0  0  0  0  0
    0.0217   -0.7430   -1.2941 H   0  0  0  0  0  0  0  0  0  0  0  0
   -1.7435   -0.8440   -1.7576 H   0  0  0  0  0  0  0  0  0  0  0  0
   -0.9968    0.7762   -1.3772 H   0  0  0  0  0  0  0  0  0  0  0  0
    4.9911   -2.7042   -0.7526 H   0  0  0  0  0  0  0  0  0  0  0  0
    6.0284    1.3006   -0.2703 H   0  0  0  0  0  0  0  0  0  0  0  0
   -3.0148    0.5961    2.4833 H   0  0  0  0  0  0  0  0  0  0  0  0
   -4.4249   -0.2377    1.8041 H   0  0  0  0  0  0  0  0  0  0  0  0
   -3.0583   -1.1994    2.4579 H   0  0  0  0  0  0  0  0  0  0  0  0
   -4.0614   -2.0894    0.4577 H   0  0  0  0  0  0  0  0  0  0  0  0
   -4.0820   -1.1629   -1.0638 H   0  0  0  0  0  0  0  0  0  0  0  0
   -2.6669   -2.2075   -0.6048 H   0  0  0  0  0  0  0  0  0  0  0  0
   -3.1938    0.6444   -1.3421 H   0  0  0  0  0  0  0  0  0  0  0  0
   -2.5225    1.7746   -0.1264 H   0  0  0  0  0  0  0  0  0  0  0  0
   -4.2574    1.1305    0.0041 H   0  0  0  0  0  0  0  0  0  0  0  0
  1  2  2  0
  1  3  1  0
  1  4  1  0
  2  5  1  0
  3  6  1  0
  4  7  1  0
  5  8  2  0
  5  9  1  0
  6 10  1  0
  6 11  1  0
  7 12  3  0
  8 13  1  0
  9 14  2  0
 10 15  1  0
 10 16  1  0
 10 17  1  0
 13 18  2  0
 14 18  1  0
  3 19  1  0
  4 20  1  0
  6 21  1  0
  8 22  1  0
  9 23  1  0
 11 24  1  0
 11 25  1  0
 11 26  1  0
 13 27  1  0
 14 28  1  0
 15 29  1  0
 15 30  1  0
 15 31  1  0
 16 32  1  0
 16 33  1  0
 16 34  1  0
 17 35  1  0
 17 36  1  0
 17 37  1  0
M  END

