404772127
     RDKit          3D

 65 69  0  0  1  0  0  0  0  0999 V2000
    8.3904    0.6960   -0.0143 N   0  0  0  0  0  0  0  0  0  0  0  0
    8.9638    0.1684   -1.1085 C   0  0  0  0  0  0  0  0  0  0  0  0
    7.0607    0.6493    0.1602 C   0  0  0  0  0  0  0  0  0  0  0  0
    6.2094    0.0611   -0.7668 C   0  0  0  0  0  0  0  0  0  0  0  0
    6.4210    1.2379    1.3820 C   0  0  0  0  0  0  0  0  0  0  0  0
    4.8035    0.0244   -0.5575 N   0  0  0  0  0  0  0  0  0  0  0  0
    6.8247   -0.4703   -1.8763 C   0  0  0  0  0  0  0  0  0  0  0  0
    8.2047   -0.4368   -2.0852 C   0  0  0  0  0  0  0  0  0  0  0  0
    3.8358   -0.5262   -1.3902 C   0  0  0  0  0  0  0  0  0  0  0  0
    2.4252   -0.4709   -1.0092 C   0  0  0  0  0  0  0  0  0  0  0  0
    1.5006   -1.2918   -1.6697 C   0  0  0  0  0  0  0  0  0  0  0  0
    0.1777   -1.2707   -1.3497 C   0  0  0  0  0  0  0  0  0  0  0  0
   -0.2744   -0.4377   -0.3677 C   0  0  0  0  0  0  0  0  0  0  0  0
   -1.7715   -0.4807   -0.0652 C   0  0  2  0  0  0  0  0  0  0  0  0
   -2.0019   -1.6209    0.8579 C   0  0  0  0  0  0  0  0  0  0  0  0
   -3.3380   -1.9154    1.3194 C   0  0  0  0  0  0  0  0  0  0  0  0
   -4.1941   -2.7225    0.5744 C   0  0  0  0  0  0  0  0  0  0  0  0
   -5.4638   -3.0632    0.9712 C   0  0  0  0  0  0  0  0  0  0  0  0
   -5.9373   -2.5890    2.1737 C   0  0  0  0  0  0  0  0  0  0  0  0
   -5.1352   -1.7979    2.9330 C   0  0  0  0  0  0  0  0  0  0  0  0
   -3.8590   -1.4672    2.5139 C   0  0  0  0  0  0  0  0  0  0  0  0
   -2.6046   -0.5422   -1.3096 C   0  0  0  0  0  0  0  0  0  0  0  0
   -2.8328    0.8421   -1.9197 C   0  0  0  0  0  0  0  0  0  0  0  0
   -3.7276    1.6382   -1.0115 C   0  0  1  0  0  0  0  0  0  0  0  0
   -3.3878    1.4026    0.4541 C   0  0  0  0  0  0  0  0  0  0  0  0
   -1.9872    0.9025    0.5063 C   0  0  1  0  0  0  0  0  0  0  0  0
   -1.2406    1.1644    1.7736 C   0  0  0  0  0  0  0  0  0  0  0  0
    0.2150    1.3320    1.4123 C   0  0  0  0  0  0  0  0  0  0  0  0
    0.5734    0.3974    0.3256 C   0  0  0  0  0  0  0  0  0  0  0  0
    1.9362    0.3547   -0.0262 C   0  0  0  0  0  0  0  0  0  0  0  0
    4.1016   -1.0832   -2.4759 O   0  0  0  0  0  0  0  0  0  0  0  0
   -3.7438    3.0810   -1.3924 C   0  0  0  0  0  0  0  0  0  0  0  0
   -5.0367    1.1439   -1.1868 O   0  0  0  0  0  0  0  0  0  0  0  0
   -4.2192    3.1548   -2.7095 F   0  0  0  0  0  0  0  0  0  0  0  0
   -2.5288    3.6937   -1.3755 F   0  0  0  0  0  0  0  0  0  0  0  0
   -4.7050    3.7658   -0.6439 F   0  0  0  0  0  0  0  0  0  0  0  0
   10.0492    0.1982   -1.2660 H   0  0  0  0  0  0  0  0  0  0  0  0
    7.2364    1.5219    2.0819 H   0  0  0  0  0  0  0  0  0  0  0  0
    5.8098    2.0967    1.0699 H   0  0  0  0  0  0  0  0  0  0  0  0
    5.8550    0.4315    1.8879 H   0  0  0  0  0  0  0  0  0  0  0  0
    4.5020    0.4843    0.3669 H   0  0  0  0  0  0  0  0  0  0  0  0
    6.2764   -0.9482   -2.6574 H   0  0  0  0  0  0  0  0  0  0  0  0
    8.6527   -0.8713   -2.9813 H   0  0  0  0  0  0  0  0  0  0  0  0
    1.8597   -1.9504   -2.4478 H   0  0  0  0  0  0  0  0  0  0  0  0
   -0.4691   -1.9444   -1.9021 H   0  0  0  0  0  0  0  0  0  0  0  0
   -1.5319   -2.5803    0.4486 H   0  0  0  0  0  0  0  0  0  0  0  0
   -1.3288   -1.4410    1.7564 H   0  0  0  0  0  0  0  0  0  0  0  0
   -3.8406   -3.1020   -0.3598 H   0  0  0  0  0  0  0  0  0  0  0  0
   -6.0603   -3.6892    0.3406 H   0  0  0  0  0  0  0  0  0  0  0  0
   -6.9374   -2.8605    2.4811 H   0  0  0  0  0  0  0  0  0  0  0  0
   -5.5467   -1.4388    3.8856 H   0  0  0  0  0  0  0  0  0  0  0  0
   -3.2893   -0.8367    3.1777 H   0  0  0  0  0  0  0  0  0  0  0  0
   -2.2510   -1.2132   -2.0794 H   0  0  0  0  0  0  0  0  0  0  0  0
   -3.6576   -0.8119   -0.9813 H   0  0  0  0  0  0  0  0  0  0  0  0
   -1.9156    1.3354   -2.2240 H   0  0  0  0  0  0  0  0  0  0  0  0
   -3.4204    0.6494   -2.8553 H   0  0  0  0  0  0  0  0  0  0  0  0
   -4.1470    0.8479    0.9804 H   0  0  0  0  0  0  0  0  0  0  0  0
   -3.3721    2.4237    0.9047 H   0  0  0  0  0  0  0  0  0  0  0  0
   -1.4412    1.5891   -0.2590 H   0  0  0  0  0  0  0  0  0  0  0  0
   -1.3697    0.3970    2.5361 H   0  0  0  0  0  0  0  0  0  0  0  0
   -1.6332    2.1647    2.1504 H   0  0  0  0  0  0  0  0  0  0  0  0
    0.8468    1.1607    2.3226 H   0  0  0  0  0  0  0  0  0  0  0  0
    0.4123    2.3554    1.0281 H   0  0  0  0  0  0  0  0  0  0  0  0
    2.6044    1.0105    0.5115 H   0  0  0  0  0  0  0  0  0  0  0  0
   -5.5469    1.4981   -0.3886 H   0  0  0  0  0  0  0  0  0  0  0  0
  1  2  2  0
  1  3  1  0
  2  8  1  0
  3  4  2  0
  4  6  1  0
  3  5  1  0
  4  7  1  0
  7  8  2  0
  6  9  1  0
  9 10  1  0
 10 30  1  0
 10 11  2  0
 11 12  1  0
 12 13  2  0
 13 29  1  0
 14 22  1  0
 13 14  1  0
 15 16  1  0
 16 17  2  0
 17 18  1  0
 18 19  2  0
 19 20  1  0
 20 21  2  0
 16 21  1  0
 22 23  1  0
 24 25  1  0
 23 24  1  0
 26 27  1  0
 14 26  1  0
 25 26  1  0
 27 28  1  0
 28 29  1  0
 29 30  2  0
  9 31  2  0
 24 32  1  0
 24 33  1  1
 32 34  1  0
 32 35  1  0
 32 36  1  0
 14 15  1  1
  2 37  1  0
  5 38  1  0
  5 39  1  0
  5 40  1  0
  6 41  1  0
  7 42  1  0
  8 43  1  0
 11 44  1  0
 12 45  1  0
 15 46  1  0
 15 47  1  0
 17 48  1  0
 18 49  1  0
 19 50  1  0
 20 51  1  0
 21 52  1  0
 22 53  1  0
 22 54  1  0
 23 55  1  0
 23 56  1  0
 25 57  1  0
 25 58  1  0
 26 59  1  6
 27 60  1  0
 27 61  1  0
 28 62  1  0
 28 63  1  0
 30 64  1  0
 33 65  1  0
M  END

