404770844
     RDKit          3D

 48 50  0  0  0  0  0  0  0  0999 V2000
    4.0930    1.9018   -0.2486 C   0  0  0  0  0  0  0  0  0  0  0  0
    3.7139    0.9939   -1.3927 C   0  0  0  0  0  0  0  0  0  0  0  0
    3.7941    1.2011    1.0591 C   0  0  0  0  0  0  0  0  0  0  0  0
    4.4464   -0.3197   -1.2359 C   0  0  0  0  0  0  0  0  0  0  0  0
    4.5421   -0.0897    1.1746 C   0  0  0  0  0  0  0  0  0  0  0  0
    4.0610   -0.9949    0.0591 C   0  0  0  0  0  0  0  0  0  0  0  0
    2.3202    0.9649    1.1487 C   0  0  0  0  0  0  0  0  0  0  0  0
    1.8674    0.0944   -0.0121 C   0  0  0  0  0  0  0  0  0  0  0  0
    2.2358    0.6842   -1.3364 C   0  0  0  0  0  0  0  0  0  0  0  0
    2.5885   -1.2332    0.1870 C   0  0  0  0  0  0  0  0  0  0  0  0
    0.4389   -0.0465    0.0641 N   0  0  0  0  0  0  0  0  0  0  0  0
   -0.2784   -0.8824   -0.8059 C   0  0  0  0  0  0  0  0  0  0  0  0
    0.3083   -1.5396   -1.6849 O   0  0  0  0  0  0  0  0  0  0  0  0
   -1.7570   -0.9781   -0.6686 C   0  0  0  0  0  0  0  0  0  0  0  0
   -2.1879   -0.1647    0.3583 O   0  0  0  0  0  0  0  0  0  0  0  0
   -3.5521   -0.2525    0.5138 C   0  0  0  0  0  0  0  0  0  0  0  0
   -4.3506    0.1559   -0.6871 C   0  0  0  0  0  0  0  0  0  0  0  0
   -5.7612    0.0101   -0.3626 N   0  0  0  0  0  0  0  0  0  0  0  0
   -6.1430   -1.3568   -0.1972 C   0  0  0  0  0  0  0  0  0  0  0  0
   -6.1123    0.8744    0.7231 C   0  0  0  0  0  0  0  0  0  0  0  0
    5.1435    2.2114   -0.3140 H   0  0  0  0  0  0  0  0  0  0  0  0
    3.3980    2.7859   -0.2924 H   0  0  0  0  0  0  0  0  0  0  0  0
    3.9925    1.4291   -2.3557 H   0  0  0  0  0  0  0  0  0  0  0  0
    4.0641    1.9168    1.8682 H   0  0  0  0  0  0  0  0  0  0  0  0
    4.3187   -0.9922   -2.0891 H   0  0  0  0  0  0  0  0  0  0  0  0
    5.5351   -0.0497   -1.1215 H   0  0  0  0  0  0  0  0  0  0  0  0
    5.6173    0.1157    1.0033 H   0  0  0  0  0  0  0  0  0  0  0  0
    4.4111   -0.5312    2.1588 H   0  0  0  0  0  0  0  0  0  0  0  0
    4.6009   -1.9476    0.1438 H   0  0  0  0  0  0  0  0  0  0  0  0
    1.7836    1.9132    1.2035 H   0  0  0  0  0  0  0  0  0  0  0  0
    2.1503    0.3325    2.0701 H   0  0  0  0  0  0  0  0  0  0  0  0
    2.0538   -0.0742   -2.1240 H   0  0  0  0  0  0  0  0  0  0  0  0
    1.6121    1.5559   -1.5929 H   0  0  0  0  0  0  0  0  0  0  0  0
    2.4064   -1.5134    1.2672 H   0  0  0  0  0  0  0  0  0  0  0  0
    2.2286   -2.0280   -0.4556 H   0  0  0  0  0  0  0  0  0  0  0  0
   -0.0756    0.5120    0.8137 H   0  0  0  0  0  0  0  0  0  0  0  0
   -2.1723   -0.6886   -1.6617 H   0  0  0  0  0  0  0  0  0  0  0  0
   -2.0204   -2.0492   -0.4292 H   0  0  0  0  0  0  0  0  0  0  0  0
   -3.7943   -1.3368    0.7036 H   0  0  0  0  0  0  0  0  0  0  0  0
   -3.8306    0.3348    1.4127 H   0  0  0  0  0  0  0  0  0  0  0  0
   -4.1527   -0.4179   -1.5914 H   0  0  0  0  0  0  0  0  0  0  0  0
   -4.1605    1.2449   -0.8493 H   0  0  0  0  0  0  0  0  0  0  0  0
   -5.6093   -1.9520   -0.9868 H   0  0  0  0  0  0  0  0  0  0  0  0
   -7.2254   -1.4742   -0.3991 H   0  0  0  0  0  0  0  0  0  0  0  0
   -5.8835   -1.7892    0.7702 H   0  0  0  0  0  0  0  0  0  0  0  0
   -5.6208    1.8636    0.5232 H   0  0  0  0  0  0  0  0  0  0  0  0
   -7.2025    1.0933    0.7470 H   0  0  0  0  0  0  0  0  0  0  0  0
   -5.8352    0.5124    1.7197 H   0  0  0  0  0  0  0  0  0  0  0  0
  6 10  1  0
  8 10  1  0
  8  9  1  0
  8 11  1  0
  1  2  1  0
 11 12  1  0
  1  3  1  0
 12 13  2  0
  2  4  1  0
 12 14  1  0
  3  5  1  0
 14 15  1  0
  4  6  1  0
 15 16  1  0
  5  6  1  0
 16 17  1  0
  7  8  1  0
 17 18  1  0
  3  7  1  0
 18 19  1  0
  2  9  1  0
 18 20  1  0
  1 21  1  0
  1 22  1  0
  2 23  1  0
  3 24  1  0
  4 25  1  0
  4 26  1  0
  5 27  1  0
  5 28  1  0
  6 29  1  0
  7 30  1  0
  7 31  1  0
  9 32  1  0
  9 33  1  0
 10 34  1  0
 10 35  1  0
 11 36  1  0
 14 37  1  0
 14 38  1  0
 16 39  1  0
 16 40  1  0
 17 41  1  0
 17 42  1  0
 19 43  1  0
 19 44  1  0
 19 45  1  0
 20 46  1  0
 20 47  1  0
 20 48  1  0
M  END

