404771534
     RDKit          3D

 93 94  0  0  1  0  0  0  0  0999 V2000
    7.0292   -0.0241    0.8874 O   0  0  0  0  0  0  0  0  0  0  0  0
    6.5737    0.7686    0.0145 C   0  0  0  0  0  0  0  0  0  0  0  0
    7.2253    0.9603   -1.1528 O   0  0  0  0  0  0  0  0  0  0  0  0
    8.3911    0.3523   -1.5553 C   0  0  0  0  0  0  0  0  0  0  0  0
    9.5302    0.5828   -0.6411 C   0  0  0  0  0  0  0  0  0  0  0  0
   10.0855   -0.4826    0.0603 C   0  0  0  0  0  0  0  0  0  0  0  0
   11.1510   -0.3111    0.9158 C   0  0  0  0  0  0  0  0  0  0  0  0
   11.6846    0.9632    1.0780 C   0  0  0  0  0  0  0  0  0  0  0  0
   11.1463    2.0166    0.3919 C   0  0  0  0  0  0  0  0  0  0  0  0
   10.0639    1.8446   -0.4741 C   0  0  0  0  0  0  0  0  0  0  0  0
    5.3504    1.4507    0.3202 N   0  0  0  0  0  0  0  0  0  0  0  0
    4.6750    1.2595    1.5636 C   0  0  0  0  0  0  0  0  0  0  0  0
    3.3755    1.9649    1.7429 C   0  0  0  0  0  0  0  0  0  0  0  0
    2.2391    1.3395    0.9676 C   0  0  0  0  0  0  0  0  0  0  0  0
    2.4042    1.1757   -0.4824 C   0  0  0  0  0  0  0  0  0  0  0  0
    1.3495    0.5075   -1.2116 C   0  0  2  0  0  0  0  0  0  0  0  0
    0.0283    1.1361   -1.1695 N   0  0  0  0  0  0  0  0  0  0  0  0
   -1.0848    0.5256   -1.6880 C   0  0  0  0  0  0  0  0  0  0  0  0
   -2.4649    1.0689   -1.6249 C   0  0  2  0  0  0  0  0  0  0  0  0
   -2.4845    2.2948   -0.7659 C   0  0  0  0  0  0  0  0  0  0  0  0
   -3.8565    2.8980   -0.6999 C   0  0  0  0  0  0  0  0  0  0  0  0
   -4.6722    2.9024   -1.8089 O   0  0  0  0  0  0  0  0  0  0  0  0
   -5.9536    3.4351   -1.8232 C   0  0  0  0  0  0  0  0  0  0  0  0
   -6.8329    2.7110   -0.8886 C   0  0  0  0  0  0  0  0  0  0  0  0
   -7.1427    3.2059    0.3377 C   0  0  0  0  0  0  0  0  0  0  0  0
   -7.9920    2.4994    1.1801 C   0  0  0  0  0  0  0  0  0  0  0  0
   -8.5327    1.2765    0.7696 C   0  0  0  0  0  0  0  0  0  0  0  0
   -8.2130    0.7907   -0.4619 C   0  0  0  0  0  0  0  0  0  0  0  0
   -7.3739    1.4774   -1.3062 C   0  0  0  0  0  0  0  0  0  0  0  0
   -4.1890    3.3753    0.4015 O   0  0  0  0  0  0  0  0  0  0  0  0
   -3.2125   -0.0425   -1.1033 N   0  0  0  0  0  0  0  0  0  0  0  0
   -4.0176   -1.0616   -0.9662 C   0  0  0  0  0  0  0  0  0  0  0  0
   -4.1618   -1.8502    0.1939 O   0  0  0  0  0  0  0  0  0  0  0  0
   -5.0698   -2.9397    0.1594 C   0  0  0  0  0  0  0  0  0  0  0  0
   -4.7396   -3.9558   -0.9068 C   0  0  0  0  0  0  0  0  0  0  0  0
   -5.0557   -3.6442    1.4939 C   0  0  0  0  0  0  0  0  0  0  0  0
   -6.4833   -2.4000   -0.0642 C   0  0  0  0  0  0  0  0  0  0  0  0
   -4.7965   -1.4742   -1.9166 O   0  0  0  0  0  0  0  0  0  0  0  0
   -0.9758   -0.6185   -2.2669 O   0  0  0  0  0  0  0  0  0  0  0  0
    0.9846   -0.8946   -0.6878 C   0  0  0  0  0  0  0  0  0  0  0  0
    0.6826   -1.0448    0.6222 O   0  0  0  0  0  0  0  0  0  0  0  0
    0.2825   -2.2430    1.2450 C   0  0  0  0  0  0  0  0  0  0  0  0
   -0.0488   -1.8668    2.6867 C   0  0  0  0  0  0  0  0  0  0  0  0
    1.4560   -3.2041    1.2627 C   0  0  0  0  0  0  0  0  0  0  0  0
   -0.9315   -2.8404    0.6227 C   0  0  0  0  0  0  0  0  0  0  0  0
    0.9406   -1.8792   -1.4529 O   0  0  0  0  0  0  0  0  0  0  0  0
    8.6575    0.8224   -2.5585 H   0  0  0  0  0  0  0  0  0  0  0  0
    8.2839   -0.7526   -1.7009 H   0  0  0  0  0  0  0  0  0  0  0  0
    9.6588   -1.4454   -0.0894 H   0  0  0  0  0  0  0  0  0  0  0  0
   11.5461   -1.1705    1.4450 H   0  0  0  0  0  0  0  0  0  0  0  0
   12.5210    1.0742    1.7562 H   0  0  0  0  0  0  0  0  0  0  0  0
   11.5264    3.0128    0.4855 H   0  0  0  0  0  0  0  0  0  0  0  0
    9.6596    2.6827   -1.0129 H   0  0  0  0  0  0  0  0  0  0  0  0
    4.9704    2.1231   -0.3787 H   0  0  0  0  0  0  0  0  0  0  0  0
    4.3225    0.1360    1.4587 H   0  0  0  0  0  0  0  0  0  0  0  0
    5.2780    1.2187    2.4624 H   0  0  0  0  0  0  0  0  0  0  0  0
    3.1266    1.9728    2.8249 H   0  0  0  0  0  0  0  0  0  0  0  0
    3.4880    3.0187    1.3974 H   0  0  0  0  0  0  0  0  0  0  0  0
    1.9087    0.4151    1.5048 H   0  0  0  0  0  0  0  0  0  0  0  0
    1.3662    2.0597    1.1117 H   0  0  0  0  0  0  0  0  0  0  0  0
    3.3716    0.6019   -0.7299 H   0  0  0  0  0  0  0  0  0  0  0  0
    2.6609    2.2046   -0.8880 H   0  0  0  0  0  0  0  0  0  0  0  0
    1.5867    0.3007   -2.3060 H   0  0  0  0  0  0  0  0  0  0  0  0
   -0.0186    2.0712   -0.7212 H   0  0  0  0  0  0  0  0  0  0  0  0
   -2.8402    1.2834   -2.6546 H   0  0  0  0  0  0  0  0  0  0  0  0
   -2.1698    2.0265    0.2472 H   0  0  0  0  0  0  0  0  0  0  0  0
   -1.8413    3.0513   -1.2596 H   0  0  0  0  0  0  0  0  0  0  0  0
   -5.8638    4.4937   -1.4282 H   0  0  0  0  0  0  0  0  0  0  0  0
   -6.3540    3.4551   -2.8625 H   0  0  0  0  0  0  0  0  0  0  0  0
   -6.7388    4.1604    0.6743 H   0  0  0  0  0  0  0  0  0  0  0  0
   -8.2178    2.9026    2.1279 H   0  0  0  0  0  0  0  0  0  0  0  0
   -9.1975    0.7193    1.4292 H   0  0  0  0  0  0  0  0  0  0  0  0
   -8.6497   -0.1650   -0.7660 H   0  0  0  0  0  0  0  0  0  0  0  0
   -7.0983    1.1245   -2.2787 H   0  0  0  0  0  0  0  0  0  0  0  0
   -2.7272    0.0119    0.0982 H   0  0  0  0  0  0  0  0  0  0  0  0
   -3.6259   -3.9933   -0.9942 H   0  0  0  0  0  0  0  0  0  0  0  0
   -5.0825   -4.9535   -0.5149 H   0  0  0  0  0  0  0  0  0  0  0  0
   -5.1931   -3.7505   -1.8773 H   0  0  0  0  0  0  0  0  0  0  0  0
   -4.5669   -4.6531    1.3822 H   0  0  0  0  0  0  0  0  0  0  0  0
   -6.0828   -3.8648    1.7999 H   0  0  0  0  0  0  0  0  0  0  0  0
   -4.5398   -3.0538    2.2852 H   0  0  0  0  0  0  0  0  0  0  0  0
   -6.4296   -1.3071    0.1672 H   0  0  0  0  0  0  0  0  0  0  0  0
   -7.1712   -2.9380    0.5995 H   0  0  0  0  0  0  0  0  0  0  0  0
   -6.8302   -2.4755   -1.0917 H   0  0  0  0  0  0  0  0  0  0  0  0
   -0.7294   -2.6258    3.1511 H   0  0  0  0  0  0  0  0  0  0  0  0
   -0.5962   -0.8866    2.6278 H   0  0  0  0  0  0  0  0  0  0  0  0
    0.8575   -1.7250    3.2603 H   0  0  0  0  0  0  0  0  0  0  0  0
    2.2680   -2.7910    1.8981 H   0  0  0  0  0  0  0  0  0  0  0  0
    1.8525   -3.2534    0.2175 H   0  0  0  0  0  0  0  0  0  0  0  0
    1.1437   -4.2188    1.5602 H   0  0  0  0  0  0  0  0  0  0  0  0
   -0.7442   -3.7815    0.0828 H   0  0  0  0  0  0  0  0  0  0  0  0
   -1.6815   -3.0646    1.4208 H   0  0  0  0  0  0  0  0  0  0  0  0
   -1.4270   -2.0793   -0.0158 H   0  0  0  0  0  0  0  0  0  0  0  0
  1  2  2  0
  2  3  1  0
  3  4  1  0
  4  5  1  0
  5  6  2  0
  6  7  1  0
  7  8  2  0
  8  9  1  0
  9 10  2  0
  5 10  1  0
  2 11  1  0
 11 12  1  0
 12 13  1  0
 13 14  1  0
 14 15  1  0
 15 16  1  0
 16 17  1  0
 17 18  1  0
 18 19  1  0
 19 20  1  0
 20 21  1  0
 21 22  1  0
 22 23  1  0
 23 24  1  0
 24 25  2  0
 25 26  1  0
 26 27  2  0
 27 28  1  0
 28 29  2  0
 24 29  1  0
 21 30  2  0
 19 31  1  0
 31 32  1  0
 32 33  1  0
 33 34  1  0
 34 35  1  0
 34 36  1  0
 34 37  1  0
 32 38  2  0
 18 39  2  0
 16 40  1  0
 40 41  1  0
 41 42  1  0
 42 43  1  0
 42 44  1  0
 42 45  1  0
 40 46  2  0
  4 47  1  0
  4 48  1  0
  6 49  1  0
  7 50  1  0
  8 51  1  0
  9 52  1  0
 10 53  1  0
 11 54  1  0
 12 55  1  0
 12 56  1  0
 13 57  1  0
 13 58  1  0
 14 59  1  0
 14 60  1  0
 15 61  1  0
 15 62  1  0
 16 63  1  6
 17 64  1  0
 19 65  1  6
 20 66  1  0
 20 67  1  0
 23 68  1  0
 23 69  1  0
 25 70  1  0
 26 71  1  0
 27 72  1  0
 28 73  1  0
 29 74  1  0
 31 75  1  0
 35 76  1  0
 35 77  1  0
 35 78  1  0
 36 79  1  0
 36 80  1  0
 36 81  1  0
 37 82  1  0
 37 83  1  0
 37 84  1  0
 43 85  1  0
 43 86  1  0
 43 87  1  0
 44 88  1  0
 44 89  1  0
 44 90  1  0
 45 91  1  0
 45 92  1  0
 45 93  1  0
M  END

