404771331
     RDKit          3D

 38 38  0  0  0  0  0  0  0  0999 V2000
   -0.5966    1.3890    0.0081 C   0  0  0  0  0  0  0  0  0  0  0  0
   -0.1979   -0.0572    0.1810 C   0  0  0  0  0  0  0  0  0  0  0  0
   -1.2008   -0.9821   -0.5007 C   0  0  0  0  0  0  0  0  0  0  0  0
    1.1473   -0.3269   -0.4960 C   0  0  0  0  0  0  0  0  0  0  0  0
    2.1461    0.4705    0.0126 O   0  0  0  0  0  0  0  0  0  0  0  0
   -0.0489   -0.3259    1.5668 N   0  0  0  0  0  0  0  0  0  0  0  0
   -0.8958    2.2671    0.2582 C   0  0  0  0  0  0  0  0  0  0  0  0
   -0.3030    0.9444    0.0989 N   0  0  0  0  0  0  0  0  0  0  0  0
   -1.1389   -0.1067    0.0241 C   0  0  0  0  0  0  0  0  0  0  0  0
   -0.5809   -1.3506   -0.1258 C   0  0  0  0  0  0  0  0  0  0  0  0
    0.7944   -1.4656   -0.1921 C   0  0  0  0  0  0  0  0  0  0  0  0
    1.2760   -2.6128   -0.3290 O   0  0  0  0  0  0  0  0  0  0  0  0
    1.6186   -0.4025   -0.1156 N   0  0  0  0  0  0  0  0  0  0  0  0
    1.0328    0.8015    0.0313 C   0  0  0  0  0  0  0  0  0  0  0  0
    1.8067    1.8085    0.1041 O   0  0  0  0  0  0  0  0  0  0  0  0
    3.0716   -0.5380   -0.1870 C   0  0  0  0  0  0  0  0  0  0  0  0
   -1.6190   -2.2094   -0.1729 N   0  0  0  0  0  0  0  0  0  0  0  0
   -2.7870   -1.5531   -0.0592 C   0  0  0  0  0  0  0  0  0  0  0  0
   -2.4811   -0.2499    0.0625 N   0  0  0  0  0  0  0  0  0  0  0  0
    0.1296    1.9699   -0.5911 H   0  0  0  0  0  0  0  0  0  0  0  0
   -0.6855    1.9105    0.9839 H   0  0  0  0  0  0  0  0  0  0  0  0
   -1.5938    1.4978   -0.4838 H   0  0  0  0  0  0  0  0  0  0  0  0
   -1.1203   -0.7542   -1.5975 H   0  0  0  0  0  0  0  0  0  0  0  0
   -0.8441   -2.0181   -0.3431 H   0  0  0  0  0  0  0  0  0  0  0  0
   -2.2273   -0.8271   -0.1222 H   0  0  0  0  0  0  0  0  0  0  0  0
    1.3827   -1.3896   -0.2906 H   0  0  0  0  0  0  0  0  0  0  0  0
    1.0084   -0.1328   -1.5963 H   0  0  0  0  0  0  0  0  0  0  0  0
    2.7222    0.8791   -0.6825 H   0  0  0  0  0  0  0  0  0  0  0  0
    0.8571   -0.6661    1.8813 H   0  0  0  0  0  0  0  0  0  0  0  0
   -0.8782   -0.6367    2.0702 H   0  0  0  0  0  0  0  0  0  0  0  0
   -0.3152    2.8828    0.9802 H   0  0  0  0  0  0  0  0  0  0  0  0
   -1.9230    2.1778    0.7194 H   0  0  0  0  0  0  0  0  0  0  0  0
   -0.9998    2.7902   -0.7209 H   0  0  0  0  0  0  0  0  0  0  0  0
    3.5305    0.3410    0.3144 H   0  0  0  0  0  0  0  0  0  0  0  0
    3.4197   -1.4337    0.4044 H   0  0  0  0  0  0  0  0  0  0  0  0
    3.4378   -0.6641   -1.2033 H   0  0  0  0  0  0  0  0  0  0  0  0
   -3.7992   -1.9708   -0.0620 H   0  0  0  0  0  0  0  0  0  0  0  0
   -3.1448    0.5437    0.1703 H   0  0  0  0  0  0  0  0  0  0  0  0
  1  2  1  0
  2  3  1  0
  2  4  1  0
  4  5  1  0
  2  6  1  0
  7  8  1  0
  8  9  1  0
  9 10  2  0
 10 11  1  0
 11 12  2  0
 11 13  1  0
 13 14  1  0
  8 14  1  0
 14 15  2  0
 13 16  1  0
 10 17  1  0
 17 18  2  0
 18 19  1  0
  9 19  1  0
  1 20  1  0
  1 21  1  0
  1 22  1  0
  3 23  1  0
  3 24  1  0
  3 25  1  0
  4 26  1  0
  4 27  1  0
  5 28  1  0
  6 29  1  0
  6 30  1  0
  7 31  1  0
  7 32  1  0
  7 33  1  0
 16 34  1  0
 16 35  1  0
 16 36  1  0
 18 37  1  0
 19 38  1  0
M  END

