404770014
     RDKit          3D

 40 43  0  0  0  0  0  0  0  0999 V2000
    5.0529   -0.3793    0.6807 N   0  0  0  0  0  0  0  0  0  0  0  0
    4.8433   -1.7255    0.6094 C   0  0  0  0  0  0  0  0  0  0  0  0
    3.5734   -2.1507    0.4546 N   0  0  0  0  0  0  0  0  0  0  0  0
    4.0445    0.5020    0.6015 C   0  0  0  0  0  0  0  0  0  0  0  0
    2.7687    0.0167    0.4439 C   0  0  0  0  0  0  0  0  0  0  0  0
    2.5332   -1.3392    0.3695 C   0  0  0  0  0  0  0  0  0  0  0  0
    1.2547   -1.7880    0.2126 N   0  0  0  0  0  0  0  0  0  0  0  0
    0.2109   -0.9419    0.1280 C   0  0  0  0  0  0  0  0  0  0  0  0
    0.4494    0.4101    0.2026 C   0  0  0  0  0  0  0  0  0  0  0  0
    1.7261    0.8622    0.3594 N   0  0  0  0  0  0  0  0  0  0  0  0
   -0.6883    1.3114    0.1081 C   0  0  0  0  0  0  0  0  0  0  0  0
   -1.7320    1.3699    0.9733 C   0  0  0  0  0  0  0  0  0  0  0  0
   -2.7475    2.2882    0.7490 C   0  0  0  0  0  0  0  0  0  0  0  0
   -2.7598    3.1571   -0.3157 C   0  0  0  0  0  0  0  0  0  0  0  0
   -1.6959    3.0901   -1.1885 C   0  0  0  0  0  0  0  0  0  0  0  0
   -0.6778    2.1868   -0.9848 C   0  0  0  0  0  0  0  0  0  0  0  0
    4.2183    1.9024    0.6702 N   0  0  0  0  0  0  0  0  0  0  0  0
   -1.1644   -1.3828   -0.0382 C   0  0  0  0  0  0  0  0  0  0  0  0
   -1.9503   -1.0780   -1.1190 C   0  0  0  0  0  0  0  0  0  0  0  0
   -3.2459   -1.5453   -1.1839 C   0  0  0  0  0  0  0  0  0  0  0  0
   -3.7793   -2.3218   -0.1764 C   0  0  0  0  0  0  0  0  0  0  0  0
   -3.0051   -2.6421    0.9238 C   0  0  0  0  0  0  0  0  0  0  0  0
   -1.7105   -2.1595    0.9609 C   0  0  0  0  0  0  0  0  0  0  0  0
   -1.6567    3.9517   -2.2899 O   0  0  0  0  0  0  0  0  0  0  0  0
   -4.0289   -1.2180   -2.3026 O   0  0  0  0  0  0  0  0  0  0  0  0
    5.9397   -2.6153    0.6982 N   0  0  0  0  0  0  0  0  0  0  0  0
   -1.7321    0.6885    1.8168 H   0  0  0  0  0  0  0  0  0  0  0  0
   -3.5755    2.3311    1.4407 H   0  0  0  0  0  0  0  0  0  0  0  0
   -3.5808    3.8655   -0.4559 H   0  0  0  0  0  0  0  0  0  0  0  0
    0.1290    2.1854   -1.7080 H   0  0  0  0  0  0  0  0  0  0  0  0
    4.5167    2.4112   -0.2089 H   0  0  0  0  0  0  0  0  0  0  0  0
    4.0559    2.4061    1.5592 H   0  0  0  0  0  0  0  0  0  0  0  0
   -1.5440   -0.4695   -1.9161 H   0  0  0  0  0  0  0  0  0  0  0  0
   -4.8127   -2.6908   -0.2343 H   0  0  0  0  0  0  0  0  0  0  0  0
   -3.4189   -3.2570    1.7269 H   0  0  0  0  0  0  0  0  0  0  0  0
   -1.1364   -2.4407    1.8537 H   0  0  0  0  0  0  0  0  0  0  0  0
   -2.3582    4.6231   -2.4905 H   0  0  0  0  0  0  0  0  0  0  0  0
   -4.9794   -1.5340   -2.3975 H   0  0  0  0  0  0  0  0  0  0  0  0
    6.8434   -2.3741    0.2609 H   0  0  0  0  0  0  0  0  0  0  0  0
    5.8202   -3.5061    1.2059 H   0  0  0  0  0  0  0  0  0  0  0  0
 12 13  2  0
  3  6  2  0
 13 14  1  0
  6  7  1  0
 14 15  2  0
  1  2  2  0
 15 16  1  0
 11 16  2  0
  9 11  1  0
  7  8  2  0
  4 17  1  0
  4  5  2  0
  8  9  1  0
 18 19  2  0
  1  4  1  0
 19 20  1  0
  9 10  2  0
 20 21  2  0
  5 10  1  0
 21 22  1  0
 22 23  2  0
 18 23  1  0
  8 18  1  0
  2  3  1  0
 15 24  1  0
 11 12  1  0
 20 25  1  0
  5  6  1  0
  2 26  1  0
 12 27  1  0
 13 28  1  0
 14 29  1  0
 16 30  1  0
 17 31  1  0
 17 32  1  0
 19 33  1  0
 21 34  1  0
 22 35  1  0
 23 36  1  0
 24 37  1  0
 25 38  1  0
 26 39  1  0
 26 40  1  0
M  END

