404772877
     RDKit          3D

 53 56  0  0  1  0  0  0  0  0999 V2000
    0.4037   -1.4986   -2.7481 C   0  0  0  0  0  0  0  0  0  0  0  0
    0.3202   -0.9045   -1.3577 C   0  0  1  0  0  0  0  0  0  0  0  0
   -0.0376    0.4726   -1.3571 N   0  0  0  0  0  0  0  0  0  0  0  0
   -1.3751    0.8399   -1.9357 C   0  0  0  0  0  0  0  0  0  0  0  0
   -2.4842    0.6343   -1.0027 C   0  0  0  0  0  0  0  0  0  0  0  0
   -2.7115    1.3785    0.1237 C   0  0  0  0  0  0  0  0  0  0  0  0
   -3.8140    1.1184    0.9478 C   0  0  0  0  0  0  0  0  0  0  0  0
   -4.6795    0.0999    0.6187 C   0  0  0  0  0  0  0  0  0  0  0  0
   -4.4612   -0.6502   -0.5055 C   0  0  0  0  0  0  0  0  0  0  0  0
   -3.3843   -0.3822   -1.2938 C   0  0  0  0  0  0  0  0  0  0  0  0
   -4.0468    1.9157    2.1437 C   0  0  0  0  0  0  0  0  0  0  0  0
   -5.1278    1.6709    2.9640 O   0  0  0  0  0  0  0  0  0  0  0  0
   -3.2587    2.8388    2.4386 O   0  0  0  0  0  0  0  0  0  0  0  0
    0.6967    1.5743   -0.8955 C   0  0  0  0  0  0  0  0  0  0  0  0
    0.0421    2.7402   -0.9710 O   0  0  0  0  0  0  0  0  0  0  0  0
    2.0161    1.6756   -0.3566 C   0  0  0  0  0  0  0  0  0  0  0  0
    3.0274    0.7816   -0.4781 C   0  0  0  0  0  0  0  0  0  0  0  0
    4.2624    0.9294    0.1612 C   0  0  0  0  0  0  0  0  0  0  0  0
    4.4928    2.0241    0.9552 C   0  0  0  0  0  0  0  0  0  0  0  0
    5.7230    2.1339    1.5689 C   0  0  0  0  0  0  0  0  0  0  0  0
    6.6942    1.1552    1.3799 C   0  0  0  0  0  0  0  0  0  0  0  0
    6.4555    0.0627    0.5835 C   0  0  0  0  0  0  0  0  0  0  0  0
    5.2216   -0.0406   -0.0278 C   0  0  0  0  0  0  0  0  0  0  0  0
    3.5057    2.9133    1.0812 N   0  0  0  0  0  0  0  0  0  0  0  0
    2.3140    2.7807    0.4722 C   0  0  0  0  0  0  0  0  0  0  0  0
   -0.6124   -1.7506   -0.5310 C   0  0  0  0  0  0  0  0  0  0  0  0
   -1.1257   -2.8946   -1.0746 C   0  0  0  0  0  0  0  0  0  0  0  0
   -1.9826   -3.7293   -0.3422 C   0  0  0  0  0  0  0  0  0  0  0  0
   -2.3148   -3.4014    0.9357 C   0  0  0  0  0  0  0  0  0  0  0  0
   -3.1558   -4.2207    1.6545 F   0  0  0  0  0  0  0  0  0  0  0  0
   -1.8136   -2.2627    1.4995 C   0  0  0  0  0  0  0  0  0  0  0  0
   -0.9658   -1.4458    0.7611 C   0  0  0  0  0  0  0  0  0  0  0  0
    0.8885   -2.4934   -2.6895 H   0  0  0  0  0  0  0  0  0  0  0  0
    1.0787   -0.8827   -3.3917 H   0  0  0  0  0  0  0  0  0  0  0  0
   -0.5470   -1.6038   -3.2556 H   0  0  0  0  0  0  0  0  0  0  0  0
    1.2935   -1.0836   -0.9059 H   0  0  0  0  0  0  0  0  0  0  0  0
   -1.5133    0.2897   -2.8855 H   0  0  0  0  0  0  0  0  0  0  0  0
   -1.3530    1.9089   -2.2224 H   0  0  0  0  0  0  0  0  0  0  0  0
   -2.0958    2.1817    0.4499 H   0  0  0  0  0  0  0  0  0  0  0  0
   -5.5534   -0.1305    1.2431 H   0  0  0  0  0  0  0  0  0  0  0  0
   -5.1207   -1.4660   -0.8039 H   0  0  0  0  0  0  0  0  0  0  0  0
   -3.2242   -0.9894   -2.1867 H   0  0  0  0  0  0  0  0  0  0  0  0
   -6.0192    2.0835    2.6679 H   0  0  0  0  0  0  0  0  0  0  0  0
    2.9565   -0.0597   -1.1177 H   0  0  0  0  0  0  0  0  0  0  0  0
    5.9295    2.9888    2.2008 H   0  0  0  0  0  0  0  0  0  0  0  0
    7.6700    1.2187    1.8517 H   0  0  0  0  0  0  0  0  0  0  0  0
    7.1788   -0.7127    0.4132 H   0  0  0  0  0  0  0  0  0  0  0  0
    5.0391   -0.9017   -0.6529 H   0  0  0  0  0  0  0  0  0  0  0  0
    1.5333    3.5133    0.5936 H   0  0  0  0  0  0  0  0  0  0  0  0
   -0.9079   -3.2082   -2.0623 H   0  0  0  0  0  0  0  0  0  0  0  0
   -2.3734   -4.6262   -0.7955 H   0  0  0  0  0  0  0  0  0  0  0  0
   -2.0948   -2.0277    2.5161 H   0  0  0  0  0  0  0  0  0  0  0  0
   -0.5889   -0.5577    1.2340 H   0  0  0  0  0  0  0  0  0  0  0  0
  2  1  1  0
  2  3  1  0
  3  4  1  0
  4  5  1  0
  5  6  2  0
  6  7  1  0
  7  8  2  0
  8  9  1  0
  9 10  2  0
  5 10  1  0
  7 11  1  0
 11 12  1  0
 11 13  2  0
  3 14  1  0
 14 15  2  0
 14 16  1  0
 16 17  2  0
 17 18  1  0
 18 19  2  0
 19 20  1  0
 20 21  2  0
 21 22  1  0
 22 23  2  0
 18 23  1  0
 19 24  1  0
 24 25  2  0
 16 25  1  0
  2 26  1  0
 26 27  2  0
 27 28  1  0
 28 29  2  0
 29 30  1  0
 29 31  1  0
 31 32  2  0
 26 32  1  0
  1 33  1  0
  1 34  1  0
  1 35  1  0
  2 36  1  1
  4 37  1  0
  4 38  1  0
  6 39  1  0
  8 40  1  0
  9 41  1  0
 10 42  1  0
 12 43  1  0
 17 44  1  0
 20 45  1  0
 21 46  1  0
 22 47  1  0
 23 48  1  0
 25 49  1  0
 27 50  1  0
 28 51  1  0
 31 52  1  0
 32 53  1  0
M  END

