404772784
     RDKit          3D

 77 81  0  0  1  0  0  0  0  0999 V2000
   -5.7992    3.2674    1.6080 O   0  0  0  0  0  0  0  0  0  0  0  0
   -6.1689    2.2554    2.4604 C   0  0  0  0  0  0  0  0  0  0  0  0
   -6.7278    2.4942    3.5479 O   0  0  0  0  0  0  0  0  0  0  0  0
   -5.9202    0.8255    2.1263 C   0  0  0  0  0  0  0  0  0  0  0  0
   -5.2796    0.6123    0.8698 N   0  0  0  0  0  0  0  0  0  0  0  0
   -6.1111    0.4415   -0.2664 C   0  0  0  0  0  0  0  0  0  0  0  0
   -7.4145    0.7855   -0.0192 C   0  0  0  0  0  0  0  0  0  0  0  0
   -8.3967    0.6872   -1.0141 C   0  0  0  0  0  0  0  0  0  0  0  0
   -8.0169    0.2310   -2.2613 C   0  0  0  0  0  0  0  0  0  0  0  0
   -6.7193   -0.1255   -2.5534 C   0  0  0  0  0  0  0  0  0  0  0  0
   -5.7821   -0.0156   -1.5513 C   0  0  0  0  0  0  0  0  0  0  0  0
   -4.4136   -0.4198   -1.9638 C   0  0  0  0  0  0  0  0  0  0  0  0
   -3.5146    0.7509   -1.6414 C   0  0  0  0  0  0  0  0  0  0  0  0
   -2.8667    0.6213   -0.2840 C   0  0  2  0  0  0  0  0  0  0  0  0
   -1.9189   -0.4675   -0.2351 N   0  0  0  0  0  0  0  0  0  0  0  0
   -0.5283   -0.2751   -0.0462 C   0  0  0  0  0  0  0  0  0  0  0  0
   -0.1556    0.9287    0.0798 O   0  0  0  0  0  0  0  0  0  0  0  0
    0.4656   -1.3378    0.0121 C   0  0  0  0  0  0  0  0  0  0  0  0
    1.8568   -0.7772    0.0267 C   0  0  0  0  0  0  0  0  0  0  0  0
    2.2641    0.0461   -1.1303 C   0  0  1  0  0  0  0  0  0  0  0  0
    3.7216    0.4951   -0.8977 C   0  0  0  0  0  0  0  0  0  0  0  0
    3.8673    1.3070    0.3444 C   0  0  0  0  0  0  0  0  0  0  0  0
    5.3287    1.6788    0.4296 C   0  0  0  0  0  0  0  0  0  0  0  0
    5.7419    2.9312   -0.0017 C   0  0  0  0  0  0  0  0  0  0  0  0
    7.0769    3.2607    0.0441 C   0  0  0  0  0  0  0  0  0  0  0  0
    8.0327    2.3841    0.5080 C   0  0  0  0  0  0  0  0  0  0  0  0
    7.6185    1.1420    0.9360 C   0  0  0  0  0  0  0  0  0  0  0  0
    8.5871    0.2625    1.4123 C   0  0  0  0  0  0  0  0  0  0  0  0
    8.1850   -0.9822    1.8532 C   0  0  0  0  0  0  0  0  0  0  0  0
    6.8439   -1.3261    1.8136 C   0  0  0  0  0  0  0  0  0  0  0  0
    5.8725   -0.4483    1.3375 C   0  0  0  0  0  0  0  0  0  0  0  0
    6.2706    0.7908    0.8971 C   0  0  0  0  0  0  0  0  0  0  0  0
    2.1243   -0.5549   -2.4584 C   0  0  0  0  0  0  0  0  0  0  0  0
    2.9374   -1.6116   -2.8210 O   0  0  0  0  0  0  0  0  0  0  0  0
    1.2879   -0.1506   -3.2985 O   0  0  0  0  0  0  0  0  0  0  0  0
    0.2918   -2.0647    1.3567 C   0  0  0  0  0  0  0  0  0  0  0  0
   -0.6334   -3.2068    1.1204 C   0  0  0  0  0  0  0  0  0  0  0  0
   -0.5204   -3.5174   -0.3311 C   0  0  0  0  0  0  0  0  0  0  0  0
    0.3308   -2.4338   -0.9882 C   0  0  0  0  0  0  0  0  0  0  0  0
   -3.8469    0.5768    0.8216 C   0  0  0  0  0  0  0  0  0  0  0  0
   -3.3256    0.4897    1.9619 O   0  0  0  0  0  0  0  0  0  0  0  0
   -5.6668    4.2097    1.9375 H   0  0  0  0  0  0  0  0  0  0  0  0
   -5.1288    0.5393    2.8959 H   0  0  0  0  0  0  0  0  0  0  0  0
   -6.7368    0.1420    2.3911 H   0  0  0  0  0  0  0  0  0  0  0  0
   -7.6972    1.1403    0.9570 H   0  0  0  0  0  0  0  0  0  0  0  0
   -9.4195    0.9653   -0.7941 H   0  0  0  0  0  0  0  0  0  0  0  0
   -8.8048    0.1635   -3.0209 H   0  0  0  0  0  0  0  0  0  0  0  0
   -6.4557   -0.4779   -3.5369 H   0  0  0  0  0  0  0  0  0  0  0  0
   -4.3982   -0.6896   -3.0376 H   0  0  0  0  0  0  0  0  0  0  0  0
   -4.1164   -1.2667   -1.3077 H   0  0  0  0  0  0  0  0  0  0  0  0
   -4.0474    1.7219   -1.6658 H   0  0  0  0  0  0  0  0  0  0  0  0
   -2.7119    0.7769   -2.3901 H   0  0  0  0  0  0  0  0  0  0  0  0
   -2.2996    1.5903   -0.1407 H   0  0  0  0  0  0  0  0  0  0  0  0
   -2.2772   -1.4313   -0.3445 H   0  0  0  0  0  0  0  0  0  0  0  0
    2.5882   -1.5775    0.2634 H   0  0  0  0  0  0  0  0  0  0  0  0
    1.8932   -0.1036    0.9402 H   0  0  0  0  0  0  0  0  0  0  0  0
    1.7152    1.0354   -1.1704 H   0  0  0  0  0  0  0  0  0  0  0  0
    4.4069   -0.3699   -0.9022 H   0  0  0  0  0  0  0  0  0  0  0  0
    4.0470    1.1026   -1.8044 H   0  0  0  0  0  0  0  0  0  0  0  0
    3.2972    2.2599    0.2330 H   0  0  0  0  0  0  0  0  0  0  0  0
    3.5780    0.8024    1.2832 H   0  0  0  0  0  0  0  0  0  0  0  0
    4.9752    3.6191   -0.3676 H   0  0  0  0  0  0  0  0  0  0  0  0
    7.3653    4.2491   -0.3014 H   0  0  0  0  0  0  0  0  0  0  0  0
    9.0989    2.6621    0.5384 H   0  0  0  0  0  0  0  0  0  0  0  0
    9.6330    0.5489    1.4362 H   0  0  0  0  0  0  0  0  0  0  0  0
    8.8962   -1.7025    2.2323 H   0  0  0  0  0  0  0  0  0  0  0  0
    6.5176   -2.3039    2.1589 H   0  0  0  0  0  0  0  0  0  0  0  0
    4.8482   -0.7758    1.3448 H   0  0  0  0  0  0  0  0  0  0  0  0
    3.3823   -2.1933   -2.1365 H   0  0  0  0  0  0  0  0  0  0  0  0
    1.2823   -2.4849    1.6364 H   0  0  0  0  0  0  0  0  0  0  0  0
   -0.1196   -1.3973    2.1273 H   0  0  0  0  0  0  0  0  0  0  0  0
   -0.3459   -4.0999    1.7538 H   0  0  0  0  0  0  0  0  0  0  0  0
   -1.6917   -2.9831    1.3720 H   0  0  0  0  0  0  0  0  0  0  0  0
   -1.4918   -3.6109   -0.8650 H   0  0  0  0  0  0  0  0  0  0  0  0
   -0.0284   -4.5337   -0.4168 H   0  0  0  0  0  0  0  0  0  0  0  0
    1.3264   -2.9470   -1.1462 H   0  0  0  0  0  0  0  0  0  0  0  0
   -0.0589   -2.1309   -1.9570 H   0  0  0  0  0  0  0  0  0  0  0  0
  1  2  1  0
  2  3  2  0
  2  4  1  0
  4  5  1  0
  5  6  1  0
  6  7  2  0
  7  8  1  0
  8  9  2  0
  9 10  1  0
 10 11  2  0
  6 11  1  0
 11 12  1  0
 12 13  1  0
 13 14  1  0
 14 15  1  0
 15 16  1  0
 16 17  2  0
 16 18  1  0
 18 19  1  0
 20 19  1  0
 20 21  1  0
 21 22  1  0
 22 23  1  0
 23 24  2  0
 24 25  1  0
 25 26  2  0
 26 27  1  0
 27 28  2  0
 28 29  1  0
 29 30  2  0
 30 31  1  0
 31 32  2  0
 23 32  1  0
 27 32  1  0
 20 33  1  0
 33 34  1  0
 33 35  2  0
 18 36  1  0
 36 37  1  0
 37 38  1  0
 38 39  1  0
 18 39  1  0
 14 40  1  0
  5 40  1  0
 40 41  2  0
  1 42  1  0
  4 43  1  0
  4 44  1  0
  7 45  1  0
  8 46  1  0
  9 47  1  0
 10 48  1  0
 12 49  1  0
 12 50  1  0
 13 51  1  0
 13 52  1  0
 14 53  1  1
 15 54  1  0
 19 55  1  0
 19 56  1  0
 20 57  1  6
 21 58  1  0
 21 59  1  0
 22 60  1  0
 22 61  1  0
 24 62  1  0
 25 63  1  0
 26 64  1  0
 28 65  1  0
 29 66  1  0
 30 67  1  0
 31 68  1  0
 34 69  1  0
 36 70  1  0
 36 71  1  0
 37 72  1  0
 37 73  1  0
 38 74  1  0
 38 75  1  0
 39 76  1  0
 39 77  1  0
M  END

