404770813
     RDKit          3D

 51 53  0  0  1  0  0  0  0  0999 V2000
    4.7377    0.5657   -0.5365 C   0  0  0  0  0  0  0  0  0  0  0  0
    3.3548    0.6515   -1.0850 C   0  0  0  0  0  0  0  0  0  0  0  0
    2.3698   -0.1128   -0.3485 N   0  0  0  0  0  4  0  0  0  0  0  0
    2.0439   -1.2541   -1.1771 C   0  0  0  0  0  0  0  0  0  0  0  0
    0.6873   -1.6747   -0.6618 C   0  0  0  0  0  0  0  0  0  0  0  0
    0.0201   -0.4289   -0.2649 C   0  0  0  0  0  0  0  0  0  0  0  0
   -1.2485   -0.2036    0.0082 C   0  0  0  0  0  0  0  0  0  0  0  0
   -2.2235   -1.2998   -0.0768 C   0  0  0  0  0  0  0  0  0  0  0  0
   -2.3374   -1.9506   -1.2801 C   0  0  0  0  0  0  0  0  0  0  0  0
   -3.2189   -3.0210   -1.4121 C   0  0  0  0  0  0  0  0  0  0  0  0
   -3.9498   -3.3875   -0.3202 C   0  0  0  0  0  0  0  0  0  0  0  0
   -3.8311   -2.7292    0.8833 C   0  0  0  0  0  0  0  0  0  0  0  0
   -2.9690   -1.6780    1.0246 C   0  0  0  0  0  0  0  0  0  0  0  0
   -1.8242    1.0611    0.4388 C   0  0  0  0  0  0  0  0  0  0  0  0
   -2.9541    1.5771   -0.2134 C   0  0  0  0  0  0  0  0  0  0  0  0
   -3.5591    2.7486    0.1713 C   0  0  0  0  0  0  0  0  0  0  0  0
   -3.0756    3.4664    1.2199 C   0  0  0  0  0  0  0  0  0  0  0  0
   -1.9760    3.0034    1.8873 C   0  0  0  0  0  0  0  0  0  0  0  0
   -1.3649    1.8103    1.4915 C   0  0  0  0  0  0  0  0  0  0  0  0
    1.1170    0.5921   -0.2765 C   0  0  0  0  0  0  0  0  0  0  0  0
    0.8939    1.4125   -1.5378 C   0  0  0  0  0  0  0  0  0  0  0  0
    2.8357   -0.5894    0.9118 C   0  0  0  0  0  0  0  0  0  0  0  0
    2.3461    0.2261    2.0946 C   0  0  0  0  0  0  0  0  0  0  0  0
    5.1748   -0.4545   -0.5857 H   0  0  0  0  0  0  0  0  0  0  0  0
    5.3826    1.1705   -1.2433 H   0  0  0  0  0  0  0  0  0  0  0  0
    4.8768    1.0624    0.4425 H   0  0  0  0  0  0  0  0  0  0  0  0
    3.0791    1.7368   -1.1210 H   0  0  0  0  0  0  0  0  0  0  0  0
    3.4106    0.3463   -2.1661 H   0  0  0  0  0  0  0  0  0  0  0  0
    2.0478   -0.9940   -2.2330 H   0  0  0  0  0  0  0  0  0  0  0  0
    2.8053   -2.0551   -0.9742 H   0  0  0  0  0  0  0  0  0  0  0  0
    0.8010   -2.3423    0.2331 H   0  0  0  0  0  0  0  0  0  0  0  0
    0.2278   -2.2820   -1.4272 H   0  0  0  0  0  0  0  0  0  0  0  0
   -1.7920   -1.6683   -2.1835 H   0  0  0  0  0  0  0  0  0  0  0  0
   -3.2770   -3.5039   -2.3718 H   0  0  0  0  0  0  0  0  0  0  0  0
   -4.6386   -4.2348   -0.4485 H   0  0  0  0  0  0  0  0  0  0  0  0
   -4.4256   -3.0488    1.7214 H   0  0  0  0  0  0  0  0  0  0  0  0
   -2.8459   -1.1323    1.9562 H   0  0  0  0  0  0  0  0  0  0  0  0
   -3.3861    1.0478   -1.0584 H   0  0  0  0  0  0  0  0  0  0  0  0
   -4.4298    3.1162   -0.3561 H   0  0  0  0  0  0  0  0  0  0  0  0
   -3.5592    4.3944    1.5202 H   0  0  0  0  0  0  0  0  0  0  0  0
   -1.5989    3.5803    2.7186 H   0  0  0  0  0  0  0  0  0  0  0  0
   -0.5205    1.5149    2.0886 H   0  0  0  0  0  0  0  0  0  0  0  0
    1.1378    1.2679    0.5603 H   0  0  0  0  0  0  0  0  0  0  0  0
    1.1869    2.4728   -1.3509 H   0  0  0  0  0  0  0  0  0  0  0  0
   -0.1935    1.4412   -1.7575 H   0  0  0  0  0  0  0  0  0  0  0  0
    1.4348    0.9571   -2.3756 H   0  0  0  0  0  0  0  0  0  0  0  0
    3.9366   -0.6473    1.0149 H   0  0  0  0  0  0  0  0  0  0  0  0
    2.4874   -1.6439    1.1197 H   0  0  0  0  0  0  0  0  0  0  0  0
    2.9453   -0.1488    2.9764 H   0  0  0  0  0  0  0  0  0  0  0  0
    2.5616    1.2886    2.0166 H   0  0  0  0  0  0  0  0  0  0  0  0
    1.2967   -0.0267    2.3436 H   0  0  0  0  0  0  0  0  0  0  0  0
  1  2  1  0
  2  3  1  0
  3  4  1  0
  4  5  1  0
  5  6  1  0
  6  7  2  3
  7  8  1  0
  8  9  2  0
  9 10  1  0
 10 11  2  0
 11 12  1  0
 12 13  2  0
  8 13  1  0
  7 14  1  0
 14 15  2  0
 15 16  1  0
 16 17  2  0
 17 18  1  0
 18 19  2  0
 14 19  1  0
  6 20  1  0
  3 20  1  0
 20 21  1  0
  3 22  1  0
 22 23  1  0
  1 24  1  0
  1 25  1  0
  1 26  1  0
  2 27  1  0
  2 28  1  0
  4 29  1  0
  4 30  1  0
  5 31  1  0
  5 32  1  0
  9 33  1  0
 10 34  1  0
 11 35  1  0
 12 36  1  0
 13 37  1  0
 15 38  1  0
 16 39  1  0
 17 40  1  0
 18 41  1  0
 19 42  1  0
 20 43  1  0
 21 44  1  0
 21 45  1  0
 21 46  1  0
 22 47  1  0
 22 48  1  0
 23 49  1  0
 23 50  1  0
 23 51  1  0
M  CHG  1   3   1
M  END

