404770374
     RDKit          3D

 68 71  0  0  1  0  0  0  0  0999 V2000
   -0.8883   -3.4535    3.2785 C   0  0  0  0  0  0  0  0  0  0  0  0
   -0.5959   -2.8461    2.0020 N   0  0  0  0  0  0  0  0  0  0  0  0
   -1.5470   -2.7605    0.9984 C   0  0  0  0  0  0  0  0  0  0  0  0
   -2.7045   -3.2545    1.2657 O   0  0  0  0  0  0  0  0  0  0  0  0
   -1.4142   -2.1752   -0.3543 C   0  0  1  0  0  0  0  0  0  0  0  0
   -2.5040   -2.7816   -1.2066 C   0  0  0  0  0  0  0  0  0  0  0  0
   -2.2504   -3.7473   -2.1528 C   0  0  0  0  0  0  0  0  0  0  0  0
   -3.2545   -4.3154   -2.9223 C   0  0  0  0  0  0  0  0  0  0  0  0
   -4.5675   -3.9185   -2.7580 C   0  0  0  0  0  0  0  0  0  0  0  0
   -4.8365   -2.9525   -1.8139 C   0  0  0  0  0  0  0  0  0  0  0  0
   -3.8171   -2.3916   -1.0488 C   0  0  0  0  0  0  0  0  0  0  0  0
   -1.4961   -0.7715   -0.4215 N   0  0  0  0  0  0  0  0  0  0  0  0
   -1.5876   -0.3223   -1.7769 C   0  0  0  0  0  0  0  0  0  0  0  0
   -2.1305    1.0714   -1.8682 C   0  0  0  0  0  0  0  0  0  0  0  0
   -1.6305    1.8804   -0.7283 C   0  0  0  0  0  0  0  0  0  0  0  0
   -1.9467    3.2549   -0.6936 C   0  0  0  0  0  0  0  0  0  0  0  0
   -1.5243    4.0556    0.3354 C   0  0  0  0  0  0  0  0  0  0  0  0
   -0.7736    3.5865    1.3888 C   0  0  0  0  0  0  0  0  0  0  0  0
   -0.4680    2.2393    1.3468 C   0  0  0  0  0  0  0  0  0  0  0  0
   -0.8807    1.4140    0.3259 C   0  0  0  0  0  0  0  0  0  0  0  0
   -0.5159   -0.0467    0.3419 C   0  0  2  0  0  0  0  0  0  0  0  0
    0.8821   -0.3082   -0.1090 C   0  0  0  0  0  0  0  0  0  0  0  0
    1.8979    0.4370    0.7158 C   0  0  0  0  0  0  0  0  0  0  0  0
    3.2904    0.1646    0.3365 C   0  0  0  0  0  0  0  0  0  0  0  0
    4.0153   -0.8703    0.9432 C   0  0  0  0  0  0  0  0  0  0  0  0
    5.3157   -1.1485    0.6122 C   0  0  0  0  0  0  0  0  0  0  0  0
    5.9839   -0.4130   -0.3443 C   0  0  0  0  0  0  0  0  0  0  0  0
    5.2840    0.6147   -0.9534 C   0  0  0  0  0  0  0  0  0  0  0  0
    3.9549    0.8926   -0.6125 C   0  0  0  0  0  0  0  0  0  0  0  0
    7.4011   -0.7393   -0.6791 C   0  0  0  0  0  0  0  0  0  0  0  0
    7.8662   -0.0482   -1.7480 F   0  0  0  0  0  0  0  0  0  0  0  0
    8.1862   -0.4214    0.4423 F   0  0  0  0  0  0  0  0  0  0  0  0
    7.4703   -2.1103   -0.8448 F   0  0  0  0  0  0  0  0  0  0  0  0
   -0.3744    4.4451    2.4007 O   0  0  0  0  0  0  0  0  0  0  0  0
    0.3954    3.9357    3.4676 C   0  0  0  0  0  0  0  0  0  0  0  0
   -1.8525    5.4187    0.3509 O   0  0  0  0  0  0  0  0  0  0  0  0
   -2.6194    5.9788   -0.6894 C   0  0  0  0  0  0  0  0  0  0  0  0
   -0.3189   -4.4045    3.3578 H   0  0  0  0  0  0  0  0  0  0  0  0
   -1.9584   -3.6193    3.4484 H   0  0  0  0  0  0  0  0  0  0  0  0
   -0.5532   -2.7754    4.1143 H   0  0  0  0  0  0  0  0  0  0  0  0
    0.3623   -2.4852    1.8856 H   0  0  0  0  0  0  0  0  0  0  0  0
   -0.4626   -2.5011   -0.8517 H   0  0  0  0  0  0  0  0  0  0  0  0
   -1.2146   -4.0575   -2.2851 H   0  0  0  0  0  0  0  0  0  0  0  0
   -2.9823   -5.0776   -3.6651 H   0  0  0  0  0  0  0  0  0  0  0  0
   -5.3631   -4.3574   -3.3637 H   0  0  0  0  0  0  0  0  0  0  0  0
   -5.8680   -2.6431   -1.6930 H   0  0  0  0  0  0  0  0  0  0  0  0
   -4.0635   -1.6357   -0.3189 H   0  0  0  0  0  0  0  0  0  0  0  0
   -0.5720   -0.2946   -2.2383 H   0  0  0  0  0  0  0  0  0  0  0  0
   -2.2418   -1.0568   -2.3117 H   0  0  0  0  0  0  0  0  0  0  0  0
   -3.2448    0.9673   -1.8014 H   0  0  0  0  0  0  0  0  0  0  0  0
   -1.8340    1.5791   -2.8156 H   0  0  0  0  0  0  0  0  0  0  0  0
   -2.5410    3.6240   -1.5294 H   0  0  0  0  0  0  0  0  0  0  0  0
    0.1267    1.8884    2.2018 H   0  0  0  0  0  0  0  0  0  0  0  0
   -0.6051   -0.3624    1.3943 H   0  0  0  0  0  0  0  0  0  0  0  0
    1.0627    0.0357   -1.1631 H   0  0  0  0  0  0  0  0  0  0  0  0
    1.0869   -1.3824    0.0024 H   0  0  0  0  0  0  0  0  0  0  0  0
    1.7946    0.2262    1.7903 H   0  0  0  0  0  0  0  0  0  0  0  0
    1.7414    1.5404    0.5160 H   0  0  0  0  0  0  0  0  0  0  0  0
    3.4805   -1.4392    1.6906 H   0  0  0  0  0  0  0  0  0  0  0  0
    5.8432   -1.9725    1.1198 H   0  0  0  0  0  0  0  0  0  0  0  0
    5.8066    1.1852   -1.6976 H   0  0  0  0  0  0  0  0  0  0  0  0
    3.4533    1.7161   -1.1358 H   0  0  0  0  0  0  0  0  0  0  0  0
    1.2597    3.3197    3.1261 H   0  0  0  0  0  0  0  0  0  0  0  0
    0.7238    4.7321    4.1648 H   0  0  0  0  0  0  0  0  0  0  0  0
   -0.2282    3.2472    4.1012 H   0  0  0  0  0  0  0  0  0  0  0  0
   -1.9767    6.0968   -1.5660 H   0  0  0  0  0  0  0  0  0  0  0  0
   -2.9832    6.9846   -0.3753 H   0  0  0  0  0  0  0  0  0  0  0  0
   -3.4934    5.3290   -0.9284 H   0  0  0  0  0  0  0  0  0  0  0  0
  1  2  1  0
  2  3  1  0
  3  4  2  0
  5  3  1  0
  5  6  1  0
  6  7  2  0
  7  8  1  0
  8  9  2  0
  9 10  1  0
 10 11  2  0
  6 11  1  0
  5 12  1  0
 12 13  1  0
 13 14  1  0
 14 15  1  0
 15 16  2  0
 16 17  1  0
 17 18  2  0
 18 19  1  0
 19 20  2  0
 15 20  1  0
 20 21  1  0
 12 21  1  0
 21 22  1  0
 22 23  1  0
 23 24  1  0
 24 25  2  0
 25 26  1  0
 26 27  2  0
 27 28  1  0
 28 29  2  0
 24 29  1  0
 27 30  1  0
 30 31  1  0
 30 32  1  0
 30 33  1  0
 18 34  1  0
 34 35  1  0
 17 36  1  0
 36 37  1  0
  1 38  1  0
  1 39  1  0
  1 40  1  0
  2 41  1  0
  5 42  1  6
  7 43  1  0
  8 44  1  0
  9 45  1  0
 10 46  1  0
 11 47  1  0
 13 48  1  0
 13 49  1  0
 14 50  1  0
 14 51  1  0
 16 52  1  0
 19 53  1  0
 21 54  1  1
 22 55  1  0
 22 56  1  0
 23 57  1  0
 23 58  1  0
 25 59  1  0
 26 60  1  0
 28 61  1  0
 29 62  1  0
 35 63  1  0
 35 64  1  0
 35 65  1  0
 37 66  1  0
 37 67  1  0
 37 68  1  0
M  END

