404771423
     RDKit          3D

 56 60  0  0  1  0  0  0  0  0999 V2000
   -3.7440   -2.1217   -0.0172 C   0  0  0  0  0  0  0  0  0  0  0  0
    9.0222   -0.3104    0.6969 C   0  0  0  0  0  0  0  0  0  0  0  0
    8.3282   -1.5048    0.8124 C   0  0  0  0  0  0  0  0  0  0  0  0
    8.3043    0.8394    0.4186 C   0  0  0  0  0  0  0  0  0  0  0  0
    6.9600   -1.5098    0.6484 C   0  0  0  0  0  0  0  0  0  0  0  0
    6.9389    0.8154    0.2581 C   0  0  0  0  0  0  0  0  0  0  0  0
   -0.4277    1.0991    1.8697 C   0  0  0  0  0  0  0  0  0  0  0  0
    2.1237    0.5081   -1.4986 C   0  0  0  0  0  0  0  0  0  0  0  0
   -1.8532    1.4650    1.4357 C   0  0  0  0  0  0  0  0  0  0  0  0
    0.7376    0.4992   -1.6675 C   0  0  0  0  0  0  0  0  0  0  0  0
   -4.6503    0.1609    1.3315 C   0  0  0  0  0  0  0  0  0  0  0  0
   -5.9389   -0.2822    0.6538 C   0  0  0  0  0  0  0  0  0  0  0  0
   -1.9349   -0.2716   -1.9207 C   0  0  0  0  0  0  0  0  0  0  0  0
   -3.3689   -0.6346   -2.0077 C   0  0  0  0  0  0  0  0  0  0  0  0
    1.8006    0.8957    0.8224 C   0  0  0  0  0  0  0  0  0  0  0  0
    6.2453   -0.3674    0.3718 C   0  0  0  0  0  0  0  0  0  0  0  0
    0.4181    0.8873    0.6566 C   0  0  0  0  0  0  0  0  0  0  0  0
    2.6670    0.7087   -0.2387 C   0  0  0  0  0  0  0  0  0  0  0  0
   -0.1135    0.6874   -0.5983 C   0  0  0  0  0  0  0  0  0  0  0  0
   -1.5601    0.6676   -0.8384 C   0  0  2  0  0  0  0  0  0  0  0  0
   -2.2897    0.3824    0.4800 C   0  0  2  0  0  0  0  0  0  0  0  0
   -3.7330    0.3824    0.1910 C   0  0  1  0  0  0  0  0  0  0  0  0
   -5.5513   -0.6762   -0.7668 C   0  0  1  0  0  0  0  0  0  0  0  0
    4.7987   -0.4008    0.2031 C   0  0  0  0  0  0  0  0  0  0  0  0
   -4.0460   -0.8171   -0.6912 C   0  0  2  0  0  0  0  0  0  0  0  0
   -6.1713   -1.8386   -1.1693 O   0  0  0  0  0  0  0  0  0  0  0  0
    4.1584   -1.4953    0.3085 O   0  0  0  0  0  0  0  0  0  0  0  0
    4.0461    0.7170   -0.0740 O   0  0  0  0  0  0  0  0  0  0  0  0
   -3.2928   -2.0343    0.9730 H   0  0  0  0  0  0  0  0  0  0  0  0
   -4.6706   -2.7524    0.1211 H   0  0  0  0  0  0  0  0  0  0  0  0
   -3.1122   -2.7258   -0.7314 H   0  0  0  0  0  0  0  0  0  0  0  0
   10.1013   -0.2449    0.8160 H   0  0  0  0  0  0  0  0  0  0  0  0
    8.8926   -2.3979    1.0294 H   0  0  0  0  0  0  0  0  0  0  0  0
    8.8555    1.7618    0.3312 H   0  0  0  0  0  0  0  0  0  0  0  0
    6.4278   -2.4622    0.7431 H   0  0  0  0  0  0  0  0  0  0  0  0
    6.4231    1.7590    0.0386 H   0  0  0  0  0  0  0  0  0  0  0  0
    0.0091    1.9083    2.4880 H   0  0  0  0  0  0  0  0  0  0  0  0
   -0.4364    0.1690    2.4936 H   0  0  0  0  0  0  0  0  0  0  0  0
    2.7906    0.3605   -2.3376 H   0  0  0  0  0  0  0  0  0  0  0  0
   -1.7550    2.4611    0.9263 H   0  0  0  0  0  0  0  0  0  0  0  0
   -2.4721    1.5195    2.3379 H   0  0  0  0  0  0  0  0  0  0  0  0
    0.3838    0.3378   -2.6747 H   0  0  0  0  0  0  0  0  0  0  0  0
   -4.2640   -0.5839    2.0355 H   0  0  0  0  0  0  0  0  0  0  0  0
   -4.8107    1.1071    1.9161 H   0  0  0  0  0  0  0  0  0  0  0  0
   -6.6052    0.6256    0.6309 H   0  0  0  0  0  0  0  0  0  0  0  0
   -6.4097   -1.1236    1.1988 H   0  0  0  0  0  0  0  0  0  0  0  0
   -1.6499    0.2142   -2.8989 H   0  0  0  0  0  0  0  0  0  0  0  0
   -1.2819   -1.1789   -1.8675 H   0  0  0  0  0  0  0  0  0  0  0  0
   -3.4544   -1.6036   -2.5705 H   0  0  0  0  0  0  0  0  0  0  0  0
   -3.9736    0.0899   -2.6209 H   0  0  0  0  0  0  0  0  0  0  0  0
    2.2334    1.0542    1.8185 H   0  0  0  0  0  0  0  0  0  0  0  0
   -1.8591    1.7106   -1.1430 H   0  0  0  0  0  0  0  0  0  0  0  0
   -1.8772   -0.5709    0.8474 H   0  0  0  0  0  0  0  0  0  0  0  0
   -3.9953    1.2806   -0.3928 H   0  0  0  0  0  0  0  0  0  0  0  0
   -5.7906    0.1713   -1.4692 H   0  0  0  0  0  0  0  0  0  0  0  0
   -5.5729   -2.4164   -1.7086 H   0  0  0  0  0  0  0  0  0  0  0  0
  2  3  2  0
  2  4  1  0
  3  5  1  0
  4  6  2  0
  7  9  1  0
  8 10  1  0
 11 12  1  0
 13 14  1  0
  5 16  2  0
  6 16  1  0
  7 17  1  0
 15 17  2  0
  8 18  2  0
 15 18  1  0
 10 19  2  0
 17 19  1  0
 13 20  1  0
 19 20  1  0
  9 21  1  0
 20 21  1  0
 11 22  1  0
 21 22  1  0
 12 23  1  0
 16 24  1  0
 25  1  1  1
 14 25  1  0
 22 25  1  0
 23 25  1  0
 23 26  1  0
 24 27  2  0
 18 28  1  0
 24 28  1  0
  1 29  1  0
  1 30  1  0
  1 31  1  0
  2 32  1  0
  3 33  1  0
  4 34  1  0
  5 35  1  0
  6 36  1  0
  7 37  1  0
  7 38  1  0
  8 39  1  0
  9 40  1  0
  9 41  1  0
 10 42  1  0
 11 43  1  0
 11 44  1  0
 12 45  1  0
 12 46  1  0
 13 47  1  0
 13 48  1  0
 14 49  1  0
 14 50  1  0
 15 51  1  0
 20 52  1  6
 21 53  1  1
 22 54  1  6
 23 55  1  6
 26 56  1  0
M  END

