404771376
     RDKit          3D

 25 25  0  0  0  0  0  0  0  0999 V2000
    1.4024   -1.5207   -0.4879 C   0  0  0  0  0  0  0  0  0  0  0  0
    2.1736   -0.4252   -0.1606 C   0  0  0  0  0  0  0  0  0  0  0  0
    0.0275   -1.4080   -0.4635 C   0  0  0  0  0  0  0  0  0  0  0  0
    1.5341    0.7586    0.1837 C   0  0  0  0  0  0  0  0  0  0  0  0
   -0.6199   -0.2377   -0.1232 C   0  0  0  0  0  0  0  0  0  0  0  0
    0.1510    0.8587    0.2043 C   0  0  0  0  0  0  0  0  0  0  0  0
   -2.0810   -0.1866   -0.1176 C   0  0  0  0  0  0  0  0  0  0  0  0
   -0.4865    2.0435    0.5489 O   0  0  0  0  0  0  0  0  0  0  0  0
   -2.7811   -1.1715   -0.4118 O   0  0  0  0  0  0  0  0  0  0  0  0
   -2.7213    0.9956    0.2262 O   0  0  0  0  0  0  0  0  0  0  0  0
    1.0928   -0.5918   -0.2079 C   0  0  0  0  0  0  0  0  0  0  0  0
    0.6549    0.7043   -0.1977 C   0  0  0  0  0  0  0  0  0  0  0  0
   -1.0807   -0.5932    0.0361 C   0  0  0  0  0  0  0  0  0  0  0  0
    0.0037   -1.3789   -0.0620 N   0  0  0  0  0  0  0  0  0  0  0  0
   -0.6629    0.6826   -0.0491 N   0  0  0  0  0  0  0  0  0  0  0  0
    1.9162   -2.4413   -0.7556 H   0  0  0  0  0  0  0  0  0  0  0  0
    3.2449   -0.5233   -0.1827 H   0  0  0  0  0  0  0  0  0  0  0  0
   -0.5418   -2.2712   -0.7212 H   0  0  0  0  0  0  0  0  0  0  0  0
    2.1479    1.6169    0.4402 H   0  0  0  0  0  0  0  0  0  0  0  0
   -0.0124    2.8839    0.7993 H   0  0  0  0  0  0  0  0  0  0  0  0
   -3.3536    1.0283    1.0216 H   0  0  0  0  0  0  0  0  0  0  0  0
    2.0949   -0.9799   -0.3087 H   0  0  0  0  0  0  0  0  0  0  0  0
    1.2646    1.5723   -0.2922 H   0  0  0  0  0  0  0  0  0  0  0  0
   -2.0760   -0.9334    0.1581 H   0  0  0  0  0  0  0  0  0  0  0  0
   -1.2914    1.5179   -0.0036 H   0  0  0  0  0  0  0  0  0  0  0  0
  1  2  2  0
  1  3  1  0
  2  4  1  0
  3  5  2  0
  4  6  2  0
  5  6  1  0
  5  7  1  0
  6  8  1  0
  7  9  2  0
  7 10  1  0
 11 12  2  0
 11 14  1  0
 13 14  2  0
 12 15  1  0
 13 15  1  0
  1 16  1  0
  2 17  1  0
  3 18  1  0
  4 19  1  0
  8 20  1  0
 10 21  1  0
 11 22  1  0
 12 23  1  0
 13 24  1  0
 15 25  1  0
M  END

