404771289
     RDKit          3D

 71 74  0  0  0  0  0  0  0  0999 V2000
   -6.6620   -3.6802   -1.0300 C   0  0  0  0  0  0  0  0  0  0  0  0
   -6.5699   -3.6143    0.3442 C   0  0  0  0  0  0  0  0  0  0  0  0
   -5.8537   -2.5938    0.8948 C   0  0  0  0  0  0  0  0  0  0  0  0
   -5.1973   -1.5966    0.1614 C   0  0  0  0  0  0  0  0  0  0  0  0
   -5.3271   -1.7171   -1.2062 C   0  0  0  0  0  0  0  0  0  0  0  0
   -6.0417   -2.7335   -1.8127 C   0  0  0  0  0  0  0  0  0  0  0  0
   -7.3718   -4.6900   -1.5987 F   0  0  0  0  0  0  0  0  0  0  0  0
   -4.4352   -0.5035    0.8228 C   0  0  0  0  0  0  0  0  0  0  0  0
   -5.1048    0.8160    0.7436 C   0  0  0  0  0  0  0  0  0  0  0  0
   -5.7693    1.3909    1.8252 C   0  0  0  0  0  0  0  0  0  0  0  0
   -6.4095    2.6064    1.7893 C   0  0  0  0  0  0  0  0  0  0  0  0
   -6.4100    3.3224    0.6233 C   0  0  0  0  0  0  0  0  0  0  0  0
   -5.7703    2.8023   -0.4717 C   0  0  0  0  0  0  0  0  0  0  0  0
   -5.1218    1.5574   -0.4133 C   0  0  0  0  0  0  0  0  0  0  0  0
   -7.0462    4.5193    0.6065 F   0  0  0  0  0  0  0  0  0  0  0  0
   -2.9741   -0.5368    0.6575 C   0  0  0  0  0  0  0  0  0  0  0  0
   -2.3608   -0.4619   -0.6765 C   0  0  0  0  0  0  0  0  0  0  0  0
   -0.8379   -0.5460   -0.4754 C   0  0  0  0  0  0  0  0  0  0  0  0
    0.8880    2.0440   -1.0045 C   0  0  0  0  0  0  0  0  0  0  0  0
   -0.2982    1.7991   -0.1178 C   0  0  0  0  0  0  0  0  0  0  0  0
    0.8513    0.0881    1.1099 C   0  0  0  0  0  0  0  0  0  0  0  0
    1.8930    1.1874    0.9763 C   0  0  0  0  0  0  0  0  0  0  0  0
   -0.2960    0.4649    0.3454 N   0  0  0  0  0  0  0  0  0  0  0  0
    2.1426    1.5484   -0.4168 N   0  0  0  0  0  0  0  0  0  0  0  0
    2.6495    0.4721   -1.2055 C   0  0  0  0  0  0  0  0  0  0  0  0
    3.9991    0.0213   -0.9780 C   0  0  0  0  0  0  0  0  0  0  0  0
    4.3674   -0.9937   -1.6945 O   0  0  0  0  0  0  0  0  0  0  0  0
    4.9883    0.5092   -0.1037 N   0  0  0  0  0  0  0  0  0  0  0  0
    6.2924   -0.0945   -0.0253 C   0  0  0  0  0  0  0  0  0  0  0  0
    6.5376   -1.1206    0.8522 C   0  0  0  0  0  0  0  0  0  0  0  0
    7.2862    0.3723   -0.8573 C   0  0  0  0  0  0  0  0  0  0  0  0
    8.5404   -0.1756   -0.8289 C   0  0  0  0  0  0  0  0  0  0  0  0
    8.7782   -1.2059    0.0554 C   0  0  0  0  0  0  0  0  0  0  0  0
    7.8038   -1.6793    0.8859 C   0  0  0  0  0  0  0  0  0  0  0  0
    5.4326   -1.5881    1.7322 C   0  0  0  0  0  0  0  0  0  0  0  0
    6.9963    1.4932   -1.8073 C   0  0  0  0  0  0  0  0  0  0  0  0
   -7.0554   -4.3610    0.9919 H   0  0  0  0  0  0  0  0  0  0  0  0
   -5.7917   -2.5582    1.9732 H   0  0  0  0  0  0  0  0  0  0  0  0
   -4.8691   -1.0009   -1.8696 H   0  0  0  0  0  0  0  0  0  0  0  0
   -6.1237   -2.7996   -2.9103 H   0  0  0  0  0  0  0  0  0  0  0  0
   -4.5619   -0.7745    1.9565 H   0  0  0  0  0  0  0  0  0  0  0  0
   -5.7927    0.8470    2.7807 H   0  0  0  0  0  0  0  0  0  0  0  0
   -6.9207    3.0137    2.6768 H   0  0  0  0  0  0  0  0  0  0  0  0
   -5.7802    3.3842   -1.3872 H   0  0  0  0  0  0  0  0  0  0  0  0
   -4.6685    1.2611   -1.3273 H   0  0  0  0  0  0  0  0  0  0  0  0
   -2.6038   -1.4707    1.1961 H   0  0  0  0  0  0  0  0  0  0  0  0
   -2.4905    0.2842    1.2796 H   0  0  0  0  0  0  0  0  0  0  0  0
   -2.6099   -1.2869   -1.3792 H   0  0  0  0  0  0  0  0  0  0  0  0
   -2.5053    0.4872   -1.2194 H   0  0  0  0  0  0  0  0  0  0  0  0
   -0.3881   -0.4367   -1.5053 H   0  0  0  0  0  0  0  0  0  0  0  0
   -0.5498   -1.5358   -0.0613 H   0  0  0  0  0  0  0  0  0  0  0  0
    1.0645    3.1455   -1.1579 H   0  0  0  0  0  0  0  0  0  0  0  0
    0.7586    1.5812   -2.0021 H   0  0  0  0  0  0  0  0  0  0  0  0
   -0.3630    2.5554    0.7067 H   0  0  0  0  0  0  0  0  0  0  0  0
   -1.2208    1.9531   -0.7351 H   0  0  0  0  0  0  0  0  0  0  0  0
    1.3049   -0.8343    0.6978 H   0  0  0  0  0  0  0  0  0  0  0  0
    0.6224   -0.1171    2.1767 H   0  0  0  0  0  0  0  0  0  0  0  0
    2.8177    0.9177    1.4625 H   0  0  0  0  0  0  0  0  0  0  0  0
    1.4629    2.1094    1.4512 H   0  0  0  0  0  0  0  0  0  0  0  0
    1.9535   -0.4126   -1.1696 H   0  0  0  0  0  0  0  0  0  0  0  0
    2.5911    0.8250   -2.2785 H   0  0  0  0  0  0  0  0  0  0  0  0
    4.8243    1.3256    0.4963 H   0  0  0  0  0  0  0  0  0  0  0  0
    9.2973    0.2180   -1.5001 H   0  0  0  0  0  0  0  0  0  0  0  0
    9.7745   -1.6395    0.0741 H   0  0  0  0  0  0  0  0  0  0  0  0
    8.0005   -2.4837    1.5692 H   0  0  0  0  0  0  0  0  0  0  0  0
    5.5357   -1.0640    2.7158 H   0  0  0  0  0  0  0  0  0  0  0  0
    5.5035   -2.6782    1.9284 H   0  0  0  0  0  0  0  0  0  0  0  0
    4.4516   -1.3452    1.2948 H   0  0  0  0  0  0  0  0  0  0  0  0
    7.2533    2.4681   -1.3058 H   0  0  0  0  0  0  0  0  0  0  0  0
    7.5843    1.3934   -2.7350 H   0  0  0  0  0  0  0  0  0  0  0  0
    5.9056    1.5457   -1.9855 H   0  0  0  0  0  0  0  0  0  0  0  0
  1  2  2  0
  1  6  1  0
  1  7  1  0
  2  3  1  0
  3  4  2  0
  4  5  1  0
  4  8  1  0
  5  6  2  0
  8 16  1  0
  8  9  1  0
  9 14  1  0
  9 10  2  0
 10 11  1  0
 11 12  2  0
 12 13  1  0
 12 15  1  0
 13 14  2  0
 16 17  1  0
 17 18  1  0
 18 23  1  0
 19 20  1  0
 19 24  1  0
 20 23  1  0
 21 23  1  0
 21 22  1  0
 22 24  1  0
 24 25  1  0
 25 26  1  0
 26 28  1  0
 26 27  2  0
 28 29  1  0
 29 30  2  0
 29 31  1  0
 30 34  1  0
 30 35  1  0
 31 32  2  0
 31 36  1  0
 32 33  1  0
 33 34  2  0
  2 37  1  0
  3 38  1  0
  5 39  1  0
  6 40  1  0
  8 41  1  0
 10 42  1  0
 11 43  1  0
 13 44  1  0
 14 45  1  0
 16 46  1  0
 16 47  1  0
 17 48  1  0
 17 49  1  0
 18 50  1  0
 18 51  1  0
 19 52  1  0
 19 53  1  0
 20 54  1  0
 20 55  1  0
 21 56  1  0
 21 57  1  0
 22 58  1  0
 22 59  1  0
 25 60  1  0
 25 61  1  0
 28 62  1  0
 32 63  1  0
 33 64  1  0
 34 65  1  0
 35 66  1  0
 35 67  1  0
 35 68  1  0
 36 69  1  0
 36 70  1  0
 36 71  1  0
M  END

