404770799
     RDKit          3D

 83 88  0  0  1  0  0  0  0  0999 V2000
   -4.5983    0.9481    0.2998 C   0  0  1  0  0  0  0  0  0  0  0  0
   -5.0218    0.2460   -0.9730 C   0  0  0  0  0  0  0  0  0  0  0  0
   -5.3096    0.5051    1.4125 O   0  0  0  0  0  0  0  0  0  0  0  0
   -6.2516   -0.5945   -0.6034 C   0  0  1  0  0  0  0  0  0  0  0  0
   -6.6432    0.9152    1.2743 C   0  0  1  0  0  0  0  0  0  0  0  0
   -7.2535    0.3822   -0.0215 C   0  0  1  0  0  0  0  0  0  0  0  0
   -6.7366   -1.2896   -1.6948 O   0  0  0  0  0  0  0  0  0  0  0  0
   -7.4021    0.3276    2.4570 C   0  0  0  0  0  0  0  0  0  0  0  0
   -7.3619    1.4553   -0.9189 O   0  0  0  0  0  0  0  0  0  0  0  0
   -6.6020   -2.6541   -1.4332 C   0  0  0  0  0  0  0  0  0  0  0  0
    0.1166    0.5568    0.7287 C   0  0  2  0  0  0  0  0  0  0  0  0
    1.5949    0.5367    0.6216 C   0  0  2  0  0  0  0  0  0  0  0  0
   -0.6591    0.4993   -0.5172 C   0  0  1  0  0  0  0  0  0  0  0  0
   -0.2385    1.8507    1.4808 C   0  0  0  0  0  0  0  0  0  0  0  0
   -0.3249   -0.5438    1.6671 C   0  0  0  0  0  0  0  0  0  0  0  0
    2.0814   -0.2216   -0.5530 C   0  0  2  0  0  0  0  0  0  0  0  0
    2.1468   -0.1739    1.8599 C   0  0  0  0  0  0  0  0  0  0  0  0
   -1.4502    1.8004   -0.7281 C   0  0  0  0  0  0  0  0  0  0  0  0
    0.0505    0.2252   -1.7883 C   0  0  0  0  0  0  0  0  0  0  0  0
   -1.6677   -0.4920   -0.4006 O   0  0  0  0  0  0  0  0  0  0  0  0
   -1.7091    1.9887    1.6954 C   0  0  0  0  0  0  0  0  0  0  0  0
   -0.4645   -0.3870    2.8467 O   0  0  0  0  0  0  0  0  0  0  0  0
    3.5402   -0.4303   -0.6652 C   0  0  2  0  0  0  0  0  0  0  0  0
    1.5269    0.5018   -1.7808 C   0  0  0  0  0  0  0  0  0  0  0  0
    3.6143   -0.0461    1.8133 C   0  0  0  0  0  0  0  0  0  0  0  0
   -2.4842    1.8770    0.3999 C   0  0  2  0  0  0  0  0  0  0  0  0
    4.2652   -0.7339    0.6130 C   0  0  2  0  0  0  0  0  0  0  0  0
    4.2897    0.7301   -1.2550 C   0  0  0  0  0  0  0  0  0  0  0  0
    3.7218   -1.5106   -1.5318 O   0  0  0  0  0  0  0  0  0  0  0  0
   -3.2366    0.7307    0.4592 O   0  0  0  0  0  0  0  0  0  0  0  0
    5.6072   -0.1029    0.4902 C   0  0  2  0  0  0  0  0  0  0  0  0
    4.3063   -2.1873    0.9724 C   0  0  0  0  0  0  0  0  0  0  0  0
    5.3331    1.2013   -0.2789 C   0  0  0  0  0  0  0  0  0  0  0  0
    6.7189   -0.8309   -0.0753 C   0  0  0  0  0  0  0  0  0  0  0  0
    8.1346   -0.2724   -0.1263 C   0  0  0  0  0  0  0  0  0  0  0  0
    6.7963   -2.0082   -0.6218 C   0  0  0  0  0  0  0  0  0  0  0  0
    8.9332   -1.2285   -0.7245 O   0  0  0  0  0  0  0  0  0  0  0  0
    8.1799   -2.3103   -1.0514 C   0  0  0  0  0  0  0  0  0  0  0  0
    8.5555   -3.3884   -1.6163 O   0  0  0  0  0  0  0  0  0  0  0  0
   -4.7333    2.0481    0.1536 H   0  0  0  0  0  0  0  0  0  0  0  0
   -4.2639   -0.4865   -1.3194 H   0  0  0  0  0  0  0  0  0  0  0  0
   -5.2377    0.9447   -1.7934 H   0  0  0  0  0  0  0  0  0  0  0  0
   -5.8809   -1.2903    0.2025 H   0  0  0  0  0  0  0  0  0  0  0  0
   -6.7113    2.0194    1.3059 H   0  0  0  0  0  0  0  0  0  0  0  0
   -8.2217   -0.0932    0.1777 H   0  0  0  0  0  0  0  0  0  0  0  0
   -7.9443   -0.5921    2.0892 H   0  0  0  0  0  0  0  0  0  0  0  0
   -8.1258    1.0954    2.8315 H   0  0  0  0  0  0  0  0  0  0  0  0
   -6.7208   -0.0125    3.2600 H   0  0  0  0  0  0  0  0  0  0  0  0
   -7.5186    1.1523   -1.8455 H   0  0  0  0  0  0  0  0  0  0  0  0
   -7.1883   -2.8947   -0.5230 H   0  0  0  0  0  0  0  0  0  0  0  0
   -6.8895   -3.2693   -2.3059 H   0  0  0  0  0  0  0  0  0  0  0  0
   -5.5281   -2.8496   -1.1870 H   0  0  0  0  0  0  0  0  0  0  0  0
    2.0355    1.5599    0.6125 H   0  0  0  0  0  0  0  0  0  0  0  0
    0.2387    1.7564    2.4969 H   0  0  0  0  0  0  0  0  0  0  0  0
    0.2316    2.7266    1.0156 H   0  0  0  0  0  0  0  0  0  0  0  0
   -0.5130   -1.5108    1.1961 H   0  0  0  0  0  0  0  0  0  0  0  0
    1.5405   -1.2157   -0.5460 H   0  0  0  0  0  0  0  0  0  0  0  0
    1.7682    0.2995    2.7641 H   0  0  0  0  0  0  0  0  0  0  0  0
    1.7633   -1.2062    1.8336 H   0  0  0  0  0  0  0  0  0  0  0  0
   -2.0199    1.7346   -1.6782 H   0  0  0  0  0  0  0  0  0  0  0  0
   -0.8063    2.6766   -0.7399 H   0  0  0  0  0  0  0  0  0  0  0  0
   -0.0608   -0.8565   -2.0957 H   0  0  0  0  0  0  0  0  0  0  0  0
   -0.3783    0.7955   -2.6504 H   0  0  0  0  0  0  0  0  0  0  0  0
   -1.3307   -1.3729   -0.7021 H   0  0  0  0  0  0  0  0  0  0  0  0
   -2.0625    1.2741    2.4593 H   0  0  0  0  0  0  0  0  0  0  0  0
   -1.8907    3.0027    2.1029 H   0  0  0  0  0  0  0  0  0  0  0  0
    1.6473    1.5996   -1.7024 H   0  0  0  0  0  0  0  0  0  0  0  0
    1.9546    0.0769   -2.7111 H   0  0  0  0  0  0  0  0  0  0  0  0
    4.0480   -0.5181    2.7348 H   0  0  0  0  0  0  0  0  0  0  0  0
    3.8968    1.0203    1.8516 H   0  0  0  0  0  0  0  0  0  0  0  0
   -3.1404    2.7561    0.2360 H   0  0  0  0  0  0  0  0  0  0  0  0
    4.8511    0.4532   -2.1921 H   0  0  0  0  0  0  0  0  0  0  0  0
    3.6733    1.5876   -1.5229 H   0  0  0  0  0  0  0  0  0  0  0  0
    2.9462   -2.1440   -1.4401 H   0  0  0  0  0  0  0  0  0  0  0  0
    5.9737    0.3010    1.4943 H   0  0  0  0  0  0  0  0  0  0  0  0
    3.9510   -2.8761    0.1792 H   0  0  0  0  0  0  0  0  0  0  0  0
    3.5615   -2.4123    1.8194 H   0  0  0  0  0  0  0  0  0  0  0  0
    5.2493   -2.5571    1.3733 H   0  0  0  0  0  0  0  0  0  0  0  0
    6.2720    1.5163   -0.7313 H   0  0  0  0  0  0  0  0  0  0  0  0
    4.8851    1.9671    0.3771 H   0  0  0  0  0  0  0  0  0  0  0  0
    8.1021    0.6212   -0.8139 H   0  0  0  0  0  0  0  0  0  0  0  0
    8.4503    0.0275    0.8964 H   0  0  0  0  0  0  0  0  0  0  0  0
    6.0290   -2.7271   -0.7947 H   0  0  0  0  0  0  0  0  0  0  0  0
  5  6  1  0
  1  2  1  0
  1  3  1  0
  2  4  1  0
  3  5  1  0
  4  6  1  0
  4  7  1  0
  5  8  1  0
  6  9  1  0
 11 12  1  0
 11 13  1  0
 11 14  1  0
 11 15  1  1
 12 16  1  0
 12 17  1  0
 13 18  1  0
 13 19  1  0
 13 20  1  1
 14 21  1  0
 15 22  2  0
 16 23  1  0
 16 24  1  0
 17 25  1  0
 18 26  1  0
 23 27  1  0
 23 28  1  0
 23 29  1  6
 26 30  1  0
 27 31  1  0
 27 32  1  1
 28 33  1  0
 31 34  1  0
 34 35  1  0
 34 36  2  0
 35 37  1  0
 36 38  1  0
 38 39  2  0
 19 24  1  0
 21 26  1  0
 25 27  1  0
 31 33  1  0
 37 38  1  0
  7 10  1  0
  1 30  1  0
  1 40  1  6
  2 41  1  0
  2 42  1  0
  4 43  1  1
  5 44  1  6
  6 45  1  1
  8 46  1  0
  8 47  1  0
  8 48  1  0
  9 49  1  0
 10 50  1  0
 10 51  1  0
 10 52  1  0
 12 53  1  6
 14 54  1  0
 14 55  1  0
 15 56  1  0
 16 57  1  1
 17 58  1  0
 17 59  1  0
 18 60  1  0
 18 61  1  0
 19 62  1  0
 19 63  1  0
 20 64  1  0
 21 65  1  0
 21 66  1  0
 24 67  1  0
 24 68  1  0
 25 69  1  0
 25 70  1  0
 26 71  1  6
 28 72  1  0
 28 73  1  0
 29 74  1  0
 31 75  1  1
 32 76  1  0
 32 77  1  0
 32 78  1  0
 33 79  1  0
 33 80  1  0
 35 81  1  0
 35 82  1  0
 36 83  1  0
M  END

