404770164
     RDKit          3D

 74 77  0  0  0  0  0  0  0  0999 V2000
   10.0390   -2.7297   -0.2723 C   0  0  0  0  0  0  0  0  0  0  0  0
    9.3767   -3.0523   -1.5716 C   0  0  0  0  0  0  0  0  0  0  0  0
    8.9676   -1.9116   -2.2839 O   0  0  0  0  0  0  0  0  0  0  0  0
    8.0289   -1.0443   -1.6616 C   0  0  0  0  0  0  0  0  0  0  0  0
    7.6687   -1.3937   -0.5465 O   0  0  0  0  0  0  0  0  0  0  0  0
    7.5957    0.1017   -2.3330 N   0  0  0  0  0  0  0  0  0  0  0  0
    6.6928    1.1201   -2.0250 C   0  0  0  0  0  0  0  0  0  0  0  0
    6.6665    2.0807   -2.9576 N   0  0  0  0  0  0  0  0  0  0  0  0
    5.8426    1.3300   -0.8801 C   0  0  0  0  0  0  0  0  0  0  0  0
    5.4769    2.6483   -0.5430 C   0  0  0  0  0  0  0  0  0  0  0  0
    4.5990    2.9436    0.4683 C   0  0  0  0  0  0  0  0  0  0  0  0
    4.0145    1.9612    1.2255 C   0  0  0  0  0  0  0  0  0  0  0  0
    4.3520    0.6656    0.9188 C   0  0  0  0  0  0  0  0  0  0  0  0
    5.2516    0.3623   -0.1199 C   0  0  0  0  0  0  0  0  0  0  0  0
    3.1314    2.2795    2.2453 O   0  0  0  0  0  0  0  0  0  0  0  0
    2.4869    1.3309    3.0673 C   0  0  0  0  0  0  0  0  0  0  0  0
    1.6488    0.4578    2.1800 C   0  0  0  0  0  0  0  0  0  0  0  0
    1.3347   -0.8325    2.5370 C   0  0  0  0  0  0  0  0  0  0  0  0
    0.5549   -1.5966    1.7030 C   0  0  0  0  0  0  0  0  0  0  0  0
    0.0664   -1.0996    0.4928 C   0  0  0  0  0  0  0  0  0  0  0  0
    0.3738    0.1895    0.1252 C   0  0  0  0  0  0  0  0  0  0  0  0
    1.1587    0.9326    0.9821 C   0  0  0  0  0  0  0  0  0  0  0  0
   -0.1261    0.8068   -1.1498 C   0  0  0  0  0  0  0  0  0  0  0  0
   -1.1320    0.0651   -1.7599 O   0  0  0  0  0  0  0  0  0  0  0  0
   -2.3650   -0.2620   -1.2555 C   0  0  0  0  0  0  0  0  0  0  0  0
   -3.1958   -1.0228   -2.0499 C   0  0  0  0  0  0  0  0  0  0  0  0
   -4.4402   -1.3753   -1.5870 C   0  0  0  0  0  0  0  0  0  0  0  0
   -4.8699   -0.9791   -0.3390 C   0  0  0  0  0  0  0  0  0  0  0  0
   -4.0117   -0.2181    0.4282 C   0  0  0  0  0  0  0  0  0  0  0  0
   -2.7538    0.1523   -0.0110 C   0  0  0  0  0  0  0  0  0  0  0  0
   -6.2039   -1.3654    0.1679 C   0  0  0  0  0  0  0  0  0  0  0  0
   -6.7251   -2.4920   -0.7149 C   0  0  0  0  0  0  0  0  0  0  0  0
   -6.0245   -1.9927    1.5475 C   0  0  0  0  0  0  0  0  0  0  0  0
   -7.1723   -0.2646    0.2505 C   0  0  0  0  0  0  0  0  0  0  0  0
   -7.5427    0.2798    1.4833 C   0  0  0  0  0  0  0  0  0  0  0  0
   -8.4640    1.3161    1.5515 C   0  0  0  0  0  0  0  0  0  0  0  0
   -9.0420    1.8414    0.4158 C   0  0  0  0  0  0  0  0  0  0  0  0
   -8.6783    1.3071   -0.7947 C   0  0  0  0  0  0  0  0  0  0  0  0
   -7.7548    0.2673   -0.8707 C   0  0  0  0  0  0  0  0  0  0  0  0
   -9.9585    2.8773    0.5370 O   0  0  0  0  0  0  0  0  0  0  0  0
    9.3908   -3.0446    0.5693 H   0  0  0  0  0  0  0  0  0  0  0  0
   10.2298   -1.6369   -0.1290 H   0  0  0  0  0  0  0  0  0  0  0  0
   11.0037   -3.2761   -0.1226 H   0  0  0  0  0  0  0  0  0  0  0  0
   10.0757   -3.6827   -2.1598 H   0  0  0  0  0  0  0  0  0  0  0  0
    8.4773   -3.6892   -1.3571 H   0  0  0  0  0  0  0  0  0  0  0  0
    8.0562    0.2413   -3.3218 H   0  0  0  0  0  0  0  0  0  0  0  0
    6.1009    2.9038   -2.9535 H   0  0  0  0  0  0  0  0  0  0  0  0
    5.9500    3.4406   -1.1287 H   0  0  0  0  0  0  0  0  0  0  0  0
    4.3524    3.9832    0.6857 H   0  0  0  0  0  0  0  0  0  0  0  0
    3.9333   -0.1619    1.4736 H   0  0  0  0  0  0  0  0  0  0  0  0
    5.4278   -0.6868   -0.3407 H   0  0  0  0  0  0  0  0  0  0  0  0
    1.8901    1.7935    3.8598 H   0  0  0  0  0  0  0  0  0  0  0  0
    3.2877    0.6642    3.4703 H   0  0  0  0  0  0  0  0  0  0  0  0
    1.7038   -1.2550    3.4853 H   0  0  0  0  0  0  0  0  0  0  0  0
    0.3035   -2.6040    1.9725 H   0  0  0  0  0  0  0  0  0  0  0  0
   -0.5457   -1.7236   -0.1444 H   0  0  0  0  0  0  0  0  0  0  0  0
    1.4202    1.9653    0.7131 H   0  0  0  0  0  0  0  0  0  0  0  0
    0.7145    0.9200   -1.8391 H   0  0  0  0  0  0  0  0  0  0  0  0
   -0.4547    1.8299   -0.8487 H   0  0  0  0  0  0  0  0  0  0  0  0
   -2.8536   -1.3357   -3.0369 H   0  0  0  0  0  0  0  0  0  0  0  0
   -5.0492   -1.9741   -2.2564 H   0  0  0  0  0  0  0  0  0  0  0  0
   -4.3221    0.1096    1.4109 H   0  0  0  0  0  0  0  0  0  0  0  0
   -2.1169    0.7533    0.6201 H   0  0  0  0  0  0  0  0  0  0  0  0
   -6.9951   -2.0507   -1.6847 H   0  0  0  0  0  0  0  0  0  0  0  0
   -7.6058   -2.9716   -0.2125 H   0  0  0  0  0  0  0  0  0  0  0  0
   -5.9690   -3.2809   -0.8496 H   0  0  0  0  0  0  0  0  0  0  0  0
   -6.9918   -2.3360    1.9115 H   0  0  0  0  0  0  0  0  0  0  0  0
   -5.4864   -1.3227    2.2372 H   0  0  0  0  0  0  0  0  0  0  0  0
   -5.3586   -2.8770    1.4029 H   0  0  0  0  0  0  0  0  0  0  0  0
   -7.1159   -0.1019    2.3870 H   0  0  0  0  0  0  0  0  0  0  0  0
   -8.7417    1.7286    2.5071 H   0  0  0  0  0  0  0  0  0  0  0  0
   -9.1144    1.6950   -1.7193 H   0  0  0  0  0  0  0  0  0  0  0  0
   -7.5052   -0.1140   -1.8470 H   0  0  0  0  0  0  0  0  0  0  0  0
  -10.9591    2.6766    0.6453 H   0  0  0  0  0  0  0  0  0  0  0  0
  1  2  1  0
  2  3  1  0
  3  4  1  0
  4  5  2  0
  4  6  1  0
  6  7  1  0
  7  8  2  3
  7  9  1  0
  9 10  2  0
 10 11  1  0
 11 12  2  0
 12 13  1  0
 13 14  2  0
  9 14  1  0
 12 15  1  0
 15 16  1  0
 16 17  1  0
 17 18  2  0
 18 19  1  0
 19 20  2  0
 20 21  1  0
 21 22  2  0
 17 22  1  0
 21 23  1  0
 23 24  1  0
 24 25  1  0
 25 26  2  0
 26 27  1  0
 27 28  2  0
 28 29  1  0
 29 30  2  0
 25 30  1  0
 28 31  1  0
 31 32  1  0
 31 33  1  0
 31 34  1  0
 34 35  2  0
 35 36  1  0
 36 37  2  0
 37 38  1  0
 38 39  2  0
 34 39  1  0
 37 40  1  0
  1 41  1  0
  1 42  1  0
  1 43  1  0
  2 44  1  0
  2 45  1  0
  6 46  1  0
  8 47  1  0
 10 48  1  0
 11 49  1  0
 13 50  1  0
 14 51  1  0
 16 52  1  0
 16 53  1  0
 18 54  1  0
 19 55  1  0
 20 56  1  0
 22 57  1  0
 23 58  1  0
 23 59  1  0
 26 60  1  0
 27 61  1  0
 29 62  1  0
 30 63  1  0
 32 64  1  0
 32 65  1  0
 32 66  1  0
 33 67  1  0
 33 68  1  0
 33 69  1  0
 35 70  1  0
 36 71  1  0
 38 72  1  0
 39 73  1  0
 40 74  1  0
M  END

