404771394
     RDKit          3D

 33 34  0  0  1  0  0  0  0  0999 V2000
   -1.3416    0.3882   -1.1564 O   0  0  0  0  0  0  0  0  0  0  0  0
   -1.6069   -2.4136    0.0630 O   0  0  0  0  0  0  0  0  0  0  0  0
   -2.6009   -0.8800    1.8541 O   0  0  0  0  0  0  0  0  0  0  0  0
   -2.5469    2.5610    0.5000 O   0  0  0  0  0  0  0  0  0  0  0  0
    0.1177    2.0823   -0.9667 O   0  0  0  0  0  0  0  0  0  0  0  0
    0.8999   -0.0635   -0.9768 N   0  0  0  0  0  0  0  0  0  0  0  0
    2.3144    1.8236   -1.0420 N   0  0  0  0  0  0  0  0  0  0  0  0
    4.7122    1.5785   -1.1249 N   0  0  0  0  0  0  0  0  0  0  0  0
   -0.7986   -1.3088    0.3263 C   0  0  2  0  0  0  0  0  0  0  0  0
   -1.6745   -0.2889    1.0225 C   0  0  1  0  0  0  0  0  0  0  0  0
   -0.4352   -0.6303   -0.9264 C   0  0  1  0  0  0  0  0  0  0  0  0
   -2.3659    0.2565   -0.2402 C   0  0  1  0  0  0  0  0  0  0  0  0
    0.3319   -1.7775    1.1854 C   0  0  0  0  0  0  0  0  0  0  0  0
   -3.1887    1.4548    0.0129 C   0  0  0  0  0  0  0  0  0  0  0  0
    1.9657   -0.8707   -1.0082 C   0  0  0  0  0  0  0  0  0  0  0  0
    1.0955    1.2584   -0.9943 C   0  0  0  0  0  0  0  0  0  0  0  0
    3.2246   -0.3324   -1.0570 C   0  0  0  0  0  0  0  0  0  0  0  0
    3.4052    1.0210   -1.0742 C   0  0  0  0  0  0  0  0  0  0  0  0
   -1.7093   -2.5583   -0.9176 H   0  0  0  0  0  0  0  0  0  0  0  0
   -2.2447   -0.8637    2.7768 H   0  0  0  0  0  0  0  0  0  0  0  0
   -3.0548    3.3615    0.2533 H   0  0  0  0  0  0  0  0  0  0  0  0
    5.1549    1.7616   -2.0339 H   0  0  0  0  0  0  0  0  0  0  0  0
    5.1949    1.7902   -0.2397 H   0  0  0  0  0  0  0  0  0  0  0  0
   -1.0844    0.5035    1.5205 H   0  0  0  0  0  0  0  0  0  0  0  0
   -0.5775   -1.3610   -1.7684 H   0  0  0  0  0  0  0  0  0  0  0  0
   -3.0262   -0.5618   -0.5806 H   0  0  0  0  0  0  0  0  0  0  0  0
    0.5914   -2.8004    0.8767 H   0  0  0  0  0  0  0  0  0  0  0  0
    1.1607   -1.0840    1.3025 H   0  0  0  0  0  0  0  0  0  0  0  0
   -0.1003   -1.8989    2.2251 H   0  0  0  0  0  0  0  0  0  0  0  0
   -3.9605    1.1666    0.7816 H   0  0  0  0  0  0  0  0  0  0  0  0
   -3.7760    1.6641   -0.9040 H   0  0  0  0  0  0  0  0  0  0  0  0
    1.8323   -1.9765   -0.9958 H   0  0  0  0  0  0  0  0  0  0  0  0
    4.0919   -1.0017   -1.0824 H   0  0  0  0  0  0  0  0  0  0  0  0
  1 11  1  0
  1 12  1  0
  9  2  1  6
 10  3  1  0
  4 14  1  0
  5 16  2  0
 11  6  1  0
  6 15  1  0
  6 16  1  0
  7 16  1  0
  7 18  2  0
  8 18  1  0
  9 10  1  0
  9 11  1  0
  9 13  1  0
 10 12  1  0
 12 14  1  0
 15 17  2  0
 17 18  1  0
  2 19  1  0
  3 20  1  0
  4 21  1  0
  8 22  1  0
  8 23  1  0
 10 24  1  1
 11 25  1  6
 12 26  1  6
 13 27  1  0
 13 28  1  0
 13 29  1  0
 14 30  1  0
 14 31  1  0
 15 32  1  0
 17 33  1  0
M  END

