404770623
     RDKit          3D

 83 88  0  0  1  0  0  0  0  0999 V2000
    8.2551   -1.8445    1.4202 C   0  0  0  0  0  0  0  0  0  0  0  0
    8.0360   -0.4881    1.5393 C   0  0  0  0  0  0  0  0  0  0  0  0
    8.2170    0.3717    0.4573 C   0  0  0  0  0  0  0  0  0  0  0  0
    8.6287   -0.2008   -0.7366 C   0  0  0  0  0  0  0  0  0  0  0  0
    8.8504   -1.5657   -0.8609 C   0  0  0  0  0  0  0  0  0  0  0  0
    8.6638   -2.4002    0.2308 C   0  0  0  0  0  0  0  0  0  0  0  0
    8.1265    1.8147    0.6155 C   0  0  0  0  0  0  0  0  0  0  0  0
    9.3342    2.4482    1.0082 C   0  0  0  0  0  0  0  0  0  0  0  0
    9.3721    3.7897    1.2250 C   0  0  0  0  0  0  0  0  0  0  0  0
    8.2523    4.5597    1.0694 C   0  0  0  0  0  0  0  0  0  0  0  0
    7.0752    3.9671    0.6909 C   0  0  0  0  0  0  0  0  0  0  0  0
    7.0146    2.5708    0.4605 C   0  0  0  0  0  0  0  0  0  0  0  0
    8.9249   -3.8617    0.1482 C   0  0  0  0  0  0  0  0  0  0  0  0
    9.2228   -4.3070    1.4444 F   0  0  0  0  0  0  0  0  0  0  0  0
   10.0000   -4.1422   -0.6678 F   0  0  0  0  0  0  0  0  0  0  0  0
    7.8427   -4.5812   -0.2663 F   0  0  0  0  0  0  0  0  0  0  0  0
    5.7363    2.0459    0.0649 C   0  0  0  0  0  0  0  0  0  0  0  0
    5.3538    0.7285   -0.2693 N   0  0  0  0  0  0  0  0  0  0  0  0
    4.7681    2.9389    0.0074 O   0  0  0  0  0  0  0  0  0  0  0  0
    3.9681    0.4607   -0.6287 C   0  0  0  0  0  0  0  0  0  0  0  0
    2.9705    0.9484    0.1958 C   0  0  0  0  0  0  0  0  0  0  0  0
    2.2830   -0.4841   -2.0088 C   0  0  0  0  0  0  0  0  0  0  0  0
    3.6117   -0.2492   -1.7232 C   0  0  0  0  0  0  0  0  0  0  0  0
    1.2667   -0.0039   -1.1877 C   0  0  0  0  0  0  0  0  0  0  0  0
    1.6319    0.7197   -0.0776 C   0  0  0  0  0  0  0  0  0  0  0  0
    0.4571    1.0109    0.5744 C   0  0  0  0  0  0  0  0  0  0  0  0
   -0.6362    0.4641   -0.1325 C   0  0  0  0  0  0  0  0  0  0  0  0
   -0.1054   -0.1424   -1.2013 N   0  0  0  0  0  0  0  0  0  0  0  0
   -1.9869    0.4732    0.3437 C   0  0  0  0  0  0  0  0  0  0  0  0
   -3.1226    0.1244   -0.3780 N   0  0  0  0  0  0  0  0  0  0  0  0
   -2.2015    0.8319    1.5688 O   0  0  0  0  0  0  0  0  0  0  0  0
   -4.4221    0.1554    0.3520 C   0  0  2  0  0  0  0  0  0  0  0  0
   -5.2821   -0.9057   -0.2006 C   0  0  0  0  0  0  0  0  0  0  0  0
   -4.9497    1.5280    0.0575 C   0  0  0  0  0  0  0  0  0  0  0  0
   -5.1631    1.9377   -1.2248 C   0  0  0  0  0  0  0  0  0  0  0  0
   -5.6116    3.2043   -1.4813 C   0  0  0  0  0  0  0  0  0  0  0  0
   -5.8541    4.0799   -0.4530 C   0  0  0  0  0  0  0  0  0  0  0  0
   -5.6440    3.6832    0.8592 C   0  0  0  0  0  0  0  0  0  0  0  0
   -5.1876    2.3945    1.0953 C   0  0  0  0  0  0  0  0  0  0  0  0
   -5.3609   -0.9779   -1.4691 O   0  0  0  0  0  0  0  0  0  0  0  0
   -6.0137   -1.8512    0.5408 N   0  0  0  0  0  0  0  0  0  0  0  0
   -6.8351   -2.8193   -0.1440 C   0  0  0  0  0  0  0  0  0  0  0  0
   -5.9312   -1.8013    1.9913 C   0  0  0  0  0  0  0  0  0  0  0  0
   -8.2801   -2.6853   -0.0173 C   0  0  0  0  0  0  0  0  0  0  0  0
   -0.8021   -0.8417   -2.2597 C   0  0  0  0  0  0  0  0  0  0  0  0
   -8.9439   -3.5448    0.8327 C   0  0  0  0  0  0  0  0  0  0  0  0
  -10.3137   -3.4444    0.9404 C   0  0  0  0  0  0  0  0  0  0  0  0
  -11.0393   -2.5113    0.2256 C   0  0  0  0  0  0  0  0  0  0  0  0
  -10.3817   -1.6500   -0.6189 C   0  0  0  0  0  0  0  0  0  0  0  0
   -8.9946   -1.7656   -0.7173 C   0  0  0  0  0  0  0  0  0  0  0  0
    8.1205   -2.5488    2.2557 H   0  0  0  0  0  0  0  0  0  0  0  0
    7.7230   -0.0692    2.4693 H   0  0  0  0  0  0  0  0  0  0  0  0
    8.7694    0.4847   -1.5801 H   0  0  0  0  0  0  0  0  0  0  0  0
    9.1763   -1.9881   -1.8173 H   0  0  0  0  0  0  0  0  0  0  0  0
   10.2026    1.8373    1.1143 H   0  0  0  0  0  0  0  0  0  0  0  0
   10.3071    4.2710    1.5326 H   0  0  0  0  0  0  0  0  0  0  0  0
    8.3252    5.6213    1.2552 H   0  0  0  0  0  0  0  0  0  0  0  0
    6.2254    4.6039    0.5838 H   0  0  0  0  0  0  0  0  0  0  0  0
    5.9374   -0.1143   -0.3001 H   0  0  0  0  0  0  0  0  0  0  0  0
    3.2256    1.5336    1.0889 H   0  0  0  0  0  0  0  0  0  0  0  0
    1.9827   -1.0663   -2.8790 H   0  0  0  0  0  0  0  0  0  0  0  0
    4.4190   -0.6248   -2.3726 H   0  0  0  0  0  0  0  0  0  0  0  0
    0.3784    1.5626    1.4796 H   0  0  0  0  0  0  0  0  0  0  0  0
   -3.1713   -0.1558   -1.3654 H   0  0  0  0  0  0  0  0  0  0  0  0
   -4.2306    0.0417    1.4163 H   0  0  0  0  0  0  0  0  0  0  0  0
   -4.9936    1.2790   -2.0824 H   0  0  0  0  0  0  0  0  0  0  0  0
   -5.7835    3.5228   -2.4934 H   0  0  0  0  0  0  0  0  0  0  0  0
   -6.2186    5.0818   -0.7167 H   0  0  0  0  0  0  0  0  0  0  0  0
   -5.8361    4.3590    1.6602 H   0  0  0  0  0  0  0  0  0  0  0  0
   -5.0145    2.0704    2.0947 H   0  0  0  0  0  0  0  0  0  0  0  0
   -6.5447   -3.8875    0.0477 H   0  0  0  0  0  0  0  0  0  0  0  0
   -6.5673   -2.6962   -1.2542 H   0  0  0  0  0  0  0  0  0  0  0  0
   -6.2204   -2.7898    2.4322 H   0  0  0  0  0  0  0  0  0  0  0  0
   -6.5049   -0.9699    2.4276 H   0  0  0  0  0  0  0  0  0  0  0  0
   -4.8697   -1.6516    2.2717 H   0  0  0  0  0  0  0  0  0  0  0  0
   -1.3862   -1.6551   -1.7992 H   0  0  0  0  0  0  0  0  0  0  0  0
   -1.4078   -0.1496   -2.8631 H   0  0  0  0  0  0  0  0  0  0  0  0
   -0.0445   -1.2614   -2.9781 H   0  0  0  0  0  0  0  0  0  0  0  0
   -8.4322   -4.2969    1.4225 H   0  0  0  0  0  0  0  0  0  0  0  0
  -10.8654   -4.1285    1.6014 H   0  0  0  0  0  0  0  0  0  0  0  0
  -12.1155   -2.4353    0.2889 H   0  0  0  0  0  0  0  0  0  0  0  0
  -10.8817   -0.9088   -1.2048 H   0  0  0  0  0  0  0  0  0  0  0  0
   -8.5040   -1.0528   -1.3973 H   0  0  0  0  0  0  0  0  0  0  0  0
 24 25  2  0
 11 12  2  0
  7 12  1  0
  3  7  1  0
  1  6  2  0
  6 13  1  0
 25 26  1  0
 26 27  2  0
 27 28  1  0
 24 28  1  0
  1  2  1  0
 27 29  1  0
 13 14  1  0
 29 30  1  0
  3  4  1  0
 29 31  2  0
 13 15  1  0
 30 32  1  0
  7  8  2  0
 32 33  1  0
 13 16  1  0
 32 34  1  0
 34 35  2  0
 12 17  1  0
 35 36  1  0
  8  9  1  0
 36 37  2  0
 17 18  1  0
 37 38  1  0
  4  5  2  0
 38 39  2  0
 34 39  1  0
 17 19  2  0
 33 40  2  0
  9 10  2  0
 33 41  1  0
 18 20  1  0
 41 42  1  0
  2  3  2  0
 41 43  1  0
 20 21  2  0
 42 44  1  0
 21 25  1  0
 28 45  1  0
 10 11  1  0
 44 46  2  0
 22 24  1  0
 46 47  1  0
  5  6  1  0
 47 48  2  0
 22 23  2  0
 48 49  1  0
 20 23  1  0
 49 50  2  0
 44 50  1  0
  1 51  1  0
  2 52  1  0
  4 53  1  0
  5 54  1  0
  8 55  1  0
  9 56  1  0
 10 57  1  0
 11 58  1  0
 18 59  1  0
 21 60  1  0
 22 61  1  0
 23 62  1  0
 26 63  1  0
 30 64  1  0
 32 65  1  1
 35 66  1  0
 36 67  1  0
 37 68  1  0
 38 69  1  0
 39 70  1  0
 42 71  1  0
 42 72  1  0
 43 73  1  0
 43 74  1  0
 43 75  1  0
 45 76  1  0
 45 77  1  0
 45 78  1  0
 46 79  1  0
 47 80  1  0
 48 81  1  0
 49 82  1  0
 50 83  1  0
M  END

