404770116
     RDKit          3D

 61 64  0  0  0  0  0  0  0  0999 V2000
   -9.6540    0.4231   -0.3674 C   0  0  0  0  0  0  0  0  0  0  0  0
   -8.6933    1.2146    0.1994 C   0  0  0  0  0  0  0  0  0  0  0  0
   -7.6769    0.6800    0.9164 C   0  0  0  0  0  0  0  0  0  0  0  0
   -7.6312   -0.6542    1.0710 C   0  0  0  0  0  0  0  0  0  0  0  0
   -8.5447   -1.4487    0.5622 C   0  0  0  0  0  0  0  0  0  0  0  0
   -9.6501   -0.9163   -0.2122 C   0  0  0  0  0  0  0  0  0  0  0  0
   -6.3306   -1.3149    1.7929 C   0  0  0  0  0  0  0  0  0  0  0  0
   -5.4707   -0.2936    1.3845 N   0  0  0  0  0  0  0  0  0  0  0  0
   -4.6777    0.6478    1.0156 C   0  0  0  0  0  0  0  0  0  0  0  0
   -3.9790    1.4843    0.8244 O   0  0  0  0  0  0  0  0  0  0  0  0
   -4.9815    0.1817   -0.7577 C   0  0  0  0  0  0  0  0  0  0  0  0
   -3.5816   -0.2905   -0.8926 C   0  0  0  0  0  0  0  0  0  0  0  0
   -2.8868    0.3073   -1.9364 C   0  0  0  0  0  0  0  0  0  0  0  0
   -1.5158    0.1733   -1.8278 C   0  0  0  0  0  0  0  0  0  0  0  0
   -0.8965   -0.4692   -0.7904 C   0  0  0  0  0  0  0  0  0  0  0  0
   -1.6346   -1.0511    0.2098 C   0  0  0  0  0  0  0  0  0  0  0  0
   -3.0015   -0.9457    0.1268 N   0  0  0  0  0  0  0  0  0  0  0  0
    0.5303   -0.2519   -0.6748 C   0  0  0  0  0  0  0  0  0  0  0  0
    1.3877   -1.3429   -0.3388 C   0  0  0  0  0  0  0  0  0  0  0  0
    2.6884   -0.9570   -0.2633 C   0  0  0  0  0  0  0  0  0  0  0  0
    3.1701    0.3108   -0.4805 C   0  0  0  0  0  0  0  0  0  0  0  0
    2.3399    1.2641   -0.7989 C   0  0  0  0  0  0  0  0  0  0  0  0
    0.9574    0.9965   -0.9017 C   0  0  0  0  0  0  0  0  0  0  0  0
    4.5606    0.4902   -0.3419 O   0  0  0  0  0  0  0  0  0  0  0  0
    5.0593    1.7657   -0.2254 C   0  0  0  0  0  0  0  0  0  0  0  0
    6.6298    1.6071   -0.2800 C   0  0  0  0  0  0  0  0  0  0  0  0
    6.9375    0.5807    0.7699 N   0  0  0  0  0  0  0  0  0  0  0  0
    6.6301   -0.7255    0.2883 C   0  0  0  0  0  0  0  0  0  0  0  0
    7.7222   -1.7178    0.5689 C   0  0  0  0  0  0  0  0  0  0  0  0
    9.0019   -1.3918    0.1286 O   0  0  0  0  0  0  0  0  0  0  0  0
    9.1500   -0.0378    0.0252 C   0  0  0  0  0  0  0  0  0  0  0  0
    8.3122    0.7152    1.0628 C   0  0  0  0  0  0  0  0  0  0  0  0
  -10.4161    0.8693   -0.9872 H   0  0  0  0  0  0  0  0  0  0  0  0
   -8.6509    2.3187    0.0594 H   0  0  0  0  0  0  0  0  0  0  0  0
   -6.9249    1.2916    1.4043 H   0  0  0  0  0  0  0  0  0  0  0  0
   -8.5472   -2.5326    0.6701 H   0  0  0  0  0  0  0  0  0  0  0  0
  -10.4373   -1.5448   -0.5335 H   0  0  0  0  0  0  0  0  0  0  0  0
   -6.5516   -1.7178    2.6587 H   0  0  0  0  0  0  0  0  0  0  0  0
   -6.1368   -2.1749    0.9402 H   0  0  0  0  0  0  0  0  0  0  0  0
   -4.5399   -0.8471    2.3746 H   0  0  0  0  0  0  0  0  0  0  0  0
   -5.2561    1.1337   -0.9709 H   0  0  0  0  0  0  0  0  0  0  0  0
   -5.6750   -0.5773   -0.5475 H   0  0  0  0  0  0  0  0  0  0  0  0
   -3.4288    0.7780   -2.7305 H   0  0  0  0  0  0  0  0  0  0  0  0
   -0.8714    0.5175   -2.6944 H   0  0  0  0  0  0  0  0  0  0  0  0
   -1.1911   -1.6342    1.0531 H   0  0  0  0  0  0  0  0  0  0  0  0
    0.9369   -2.2456   -0.1481 H   0  0  0  0  0  0  0  0  0  0  0  0
    3.4332   -1.7803    0.0073 H   0  0  0  0  0  0  0  0  0  0  0  0
    2.6242    2.3299   -1.0283 H   0  0  0  0  0  0  0  0  0  0  0  0
    0.3158    1.8738   -1.0981 H   0  0  0  0  0  0  0  0  0  0  0  0
    4.7517    2.0192    0.9277 H   0  0  0  0  0  0  0  0  0  0  0  0
    4.7874    2.6040   -0.7977 H   0  0  0  0  0  0  0  0  0  0  0  0
    6.9425    2.5756    0.2491 H   0  0  0  0  0  0  0  0  0  0  0  0
    6.9533    1.4980   -1.2484 H   0  0  0  0  0  0  0  0  0  0  0  0
    6.4328   -0.8086   -0.8385 H   0  0  0  0  0  0  0  0  0  0  0  0
    5.6897   -1.0850    0.8914 H   0  0  0  0  0  0  0  0  0  0  0  0
    7.7973   -1.8973    1.6841 H   0  0  0  0  0  0  0  0  0  0  0  0
    7.4188   -2.6683    0.1244 H   0  0  0  0  0  0  0  0  0  0  0  0
    8.8026    0.2606   -1.0272 H   0  0  0  0  0  0  0  0  0  0  0  0
   10.2184    0.2775    0.1700 H   0  0  0  0  0  0  0  0  0  0  0  0
    8.6367    0.3657    2.0774 H   0  0  0  0  0  0  0  0  0  0  0  0
    8.6153    1.7673    1.0270 H   0  0  0  0  0  0  0  0  0  0  0  0
  1  2  2  0
  2  3  1  0
  3  4  2  0
  4  5  1  0
  5  6  2  0
  1  6  1  0
  4  7  1  0
  7  8  1  0
  8  9  1  0
  9 10  2  0
  9 11  1  0
 11 12  1  0
 12 13  2  0
 13 14  1  0
 14 15  2  0
 15 16  1  0
 16 17  2  0
 12 17  1  0
 15 18  1  0
 18 19  2  0
 19 20  1  0
 20 21  2  0
 21 22  1  0
 22 23  2  0
 18 23  1  0
 21 24  1  0
 24 25  1  0
 25 26  1  0
 26 27  1  0
 27 28  1  0
 28 29  1  0
 29 30  1  0
 30 31  1  0
 31 32  1  0
 27 32  1  0
  1 33  1  0
  2 34  1  0
  3 35  1  0
  5 36  1  0
  6 37  1  0
  7 38  1  0
  7 39  1  0
  8 40  1  0
 11 41  1  0
 11 42  1  0
 13 43  1  0
 14 44  1  0
 16 45  1  0
 19 46  1  0
 20 47  1  0
 22 48  1  0
 23 49  1  0
 25 50  1  0
 25 51  1  0
 26 52  1  0
 26 53  1  0
 28 54  1  0
 28 55  1  0
 29 56  1  0
 29 57  1  0
 31 58  1  0
 31 59  1  0
 32 60  1  0
 32 61  1  0
M  END

