404770325
     RDKit          3D

 49 50  0  0  1  0  0  0  0  0999 V2000
   -5.9132   -0.7984    0.3366 C   0  0  0  0  0  0  0  0  0  0  0  0
   -5.7146    0.6884    0.3815 C   0  0  0  0  0  0  0  0  0  0  0  0
   -5.7094    1.2358    1.7967 C   0  0  0  0  0  0  0  0  0  0  0  0
   -4.5053    1.1232   -0.3989 C   0  0  1  0  0  0  0  0  0  0  0  0
   -3.2591    0.5018    0.1308 C   0  0  0  0  0  0  0  0  0  0  0  0
   -2.8779    0.6669    1.3063 O   0  0  0  0  0  0  0  0  0  0  0  0
   -2.5235   -0.2738   -0.7233 O   0  0  0  0  0  0  0  0  0  0  0  0
   -1.3090   -0.9230   -0.3453 C   0  0  0  0  0  0  0  0  0  0  0  0
   -0.2828    0.0770    0.0523 C   0  0  0  0  0  0  0  0  0  0  0  0
    1.0359   -0.4771    0.5070 C   0  0  2  0  0  0  0  0  0  0  0  0
    1.9081    0.7009    0.8486 C   0  0  0  0  0  0  0  0  0  0  0  0
    3.2178    0.3580    1.3038 N   0  0  0  0  0  0  0  0  0  0  0  0
    3.6266    0.1215    2.5601 C   0  0  0  0  0  0  0  0  0  0  0  0
    4.9373   -0.1619    2.4848 N   0  0  0  0  0  0  0  0  0  0  0  0
    5.3680   -0.1117    1.2211 C   0  0  0  0  0  0  0  0  0  0  0  0
    4.2697    0.2191    0.4781 C   0  0  0  0  0  0  0  0  0  0  0  0
    4.4318    0.3400   -0.8701 N   0  0  0  0  0  0  0  0  0  0  0  0
    5.5945    0.1548   -1.5017 C   0  0  0  0  0  0  0  0  0  0  0  0
    6.6786   -0.1709   -0.7757 N   0  0  0  0  0  0  0  0  0  0  0  0
    6.5688   -0.3030    0.5693 C   0  0  0  0  0  0  0  0  0  0  0  0
    7.5589   -0.6077    1.2940 O   0  0  0  0  0  0  0  0  0  0  0  0
    5.7467    0.2850   -2.9108 N   0  0  0  0  0  0  0  0  0  0  0  0
    1.6427   -1.4378   -0.4349 C   0  0  0  0  0  0  0  0  0  0  0  0
    0.8207   -2.5407   -0.6197 O   0  0  0  0  0  0  0  0  0  0  0  0
   -4.7192    0.7746   -1.7893 N   0  0  0  0  0  0  0  0  0  0  0  0
   -5.0055   -1.3804    0.5682 H   0  0  0  0  0  0  0  0  0  0  0  0
   -6.7259   -1.0667    1.0434 H   0  0  0  0  0  0  0  0  0  0  0  0
   -6.2469   -1.0799   -0.6856 H   0  0  0  0  0  0  0  0  0  0  0  0
   -6.6014    1.1489   -0.1191 H   0  0  0  0  0  0  0  0  0  0  0  0
   -6.7360    1.0988    2.1957 H   0  0  0  0  0  0  0  0  0  0  0  0
   -5.0348    0.6711    2.4669 H   0  0  0  0  0  0  0  0  0  0  0  0
   -5.4950    2.3118    1.7430 H   0  0  0  0  0  0  0  0  0  0  0  0
   -4.4228    2.2219   -0.3424 H   0  0  0  0  0  0  0  0  0  0  0  0
   -1.4499   -1.6763    0.4353 H   0  0  0  0  0  0  0  0  0  0  0  0
   -0.9498   -1.3669   -1.3234 H   0  0  0  0  0  0  0  0  0  0  0  0
   -0.6350    0.7787    0.8682 H   0  0  0  0  0  0  0  0  0  0  0  0
   -0.0540    0.7627   -0.8232 H   0  0  0  0  0  0  0  0  0  0  0  0
    0.8182   -0.9718    1.5041 H   0  0  0  0  0  0  0  0  0  0  0  0
    1.9714    1.3407   -0.0627 H   0  0  0  0  0  0  0  0  0  0  0  0
    1.4257    1.3197    1.6232 H   0  0  0  0  0  0  0  0  0  0  0  0
    3.0074    0.1539    3.4729 H   0  0  0  0  0  0  0  0  0  0  0  0
    7.6049   -0.3240   -1.2318 H   0  0  0  0  0  0  0  0  0  0  0  0
    5.5027    1.1558   -3.4338 H   0  0  0  0  0  0  0  0  0  0  0  0
    6.1182   -0.5029   -3.5000 H   0  0  0  0  0  0  0  0  0  0  0  0
    1.7266   -0.9652   -1.4586 H   0  0  0  0  0  0  0  0  0  0  0  0
    2.6847   -1.7270   -0.1891 H   0  0  0  0  0  0  0  0  0  0  0  0
    0.8723   -3.2010    0.0944 H   0  0  0  0  0  0  0  0  0  0  0  0
   -3.9166    0.2720   -2.2076 H   0  0  0  0  0  0  0  0  0  0  0  0
   -5.0502    1.5852   -2.3429 H   0  0  0  0  0  0  0  0  0  0  0  0
  1  2  1  0
  2  3  1  0
  2  4  1  0
  4  5  1  0
  5  6  2  0
  5  7  1  0
  7  8  1  0
  8  9  1  0
 10  9  1  0
 10 11  1  0
 11 12  1  0
 12 13  1  0
 13 14  2  0
 14 15  1  0
 15 16  2  0
 12 16  1  0
 16 17  1  0
 17 18  2  0
 18 19  1  0
 19 20  1  0
 15 20  1  0
 20 21  2  0
 18 22  1  0
 10 23  1  0
 23 24  1  0
  4 25  1  0
  1 26  1  0
  1 27  1  0
  1 28  1  0
  2 29  1  0
  3 30  1  0
  3 31  1  0
  3 32  1  0
  4 33  1  6
  8 34  1  0
  8 35  1  0
  9 36  1  0
  9 37  1  0
 10 38  1  1
 11 39  1  0
 11 40  1  0
 13 41  1  0
 19 42  1  0
 22 43  1  0
 22 44  1  0
 23 45  1  0
 23 46  1  0
 24 47  1  0
 25 48  1  0
 25 49  1  0
M  END

