404771532
     RDKit          3D

 87 93  0  0  1  0  0  0  0  0999 V2000
    9.6206   -1.2464    1.3636 O   0  0  0  0  0  0  0  0  0  0  0  0
   10.8920    1.2364    1.0400 O   0  0  0  0  0  0  0  0  0  0  0  0
   -3.3494   -5.7037   -1.6708 O   0  0  0  0  0  0  0  0  0  0  0  0
   -6.0928   -5.5958   -1.9745 O   0  0  0  0  0  0  0  0  0  0  0  0
   -7.3960    1.5384    0.0463 O   0  0  0  0  0  0  0  0  0  0  0  0
   -8.3321   -1.8103   -0.4461 O   0  0  0  0  0  0  0  0  0  0  0  0
  -11.3450    1.9104    0.5657 O   0  0  0  0  0  0  0  0  0  0  0  0
    4.7658    1.5613   -0.2827 N   0  0  0  0  0  0  0  0  0  0  0  0
   -1.4526   -0.1268    0.6834 N   0  0  0  0  0  0  0  0  0  0  0  0
   -1.9351   -1.2432    0.1791 N   0  0  0  0  0  0  0  0  0  0  0  0
   -2.4659    0.6689    0.8254 N   0  0  0  0  0  0  0  0  0  0  0  0
   -3.5894    0.0782    0.4201 N   0  0  0  0  0  0  0  0  0  0  0  0
   -6.1705   -0.9826   -0.4108 N   0  0  0  0  0  0  0  0  0  0  0  0
    5.2698    2.7238   -0.9897 C   0  0  0  0  0  0  0  0  0  0  0  0
    5.5445    0.3869   -0.6212 C   0  0  0  0  0  0  0  0  0  0  0  0
    6.7385    2.9183   -0.9702 C   0  0  0  0  0  0  0  0  0  0  0  0
    6.9352    0.6039   -0.1760 C   0  0  0  0  0  0  0  0  0  0  0  0
    7.5226    1.8259   -0.3493 C   0  0  0  0  0  0  0  0  0  0  0  0
    4.7164    1.8589    1.1061 C   0  0  0  0  0  0  0  0  0  0  0  0
    4.0377    0.8055    1.9292 C   0  0  0  0  0  0  0  0  0  0  0  0
    7.6449   -0.4236    0.4006 C   0  0  0  0  0  0  0  0  0  0  0  0
    8.8499    2.0523    0.0541 C   0  0  0  0  0  0  0  0  0  0  0  0
    8.9641   -0.1845    0.7964 C   0  0  0  0  0  0  0  0  0  0  0  0
    9.5709    1.0363    0.6305 C   0  0  0  0  0  0  0  0  0  0  0  0
    2.6324    0.5704    1.6124 C   0  0  0  0  0  0  0  0  0  0  0  0
    2.2551   -0.4140    0.7348 C   0  0  0  0  0  0  0  0  0  0  0  0
    1.5988    1.3284    2.1762 C   0  0  0  0  0  0  0  0  0  0  0  0
    0.9154   -0.6275    0.4373 C   0  0  0  0  0  0  0  0  0  0  0  0
    0.2646    1.1122    1.8772 C   0  0  0  0  0  0  0  0  0  0  0  0
   -0.0766    0.1323    1.0070 C   0  0  0  0  0  0  0  0  0  0  0  0
    9.0388   -2.5078    1.5668 C   0  0  0  0  0  0  0  0  0  0  0  0
   11.5736    2.4469    0.8999 C   0  0  0  0  0  0  0  0  0  0  0  0
   -3.2965   -1.1531   -0.0033 C   0  0  0  0  0  0  0  0  0  0  0  0
   -4.0831   -2.2533   -0.5338 C   0  0  0  0  0  0  0  0  0  0  0  0
   -5.4455   -2.1709   -0.6778 C   0  0  0  0  0  0  0  0  0  0  0  0
   -3.4180   -3.4167   -0.8644 C   0  0  0  0  0  0  0  0  0  0  0  0
   -6.0837   -3.3164   -1.1650 C   0  0  0  0  0  0  0  0  0  0  0  0
   -4.0486   -4.5448   -1.3460 C   0  0  0  0  0  0  0  0  0  0  0  0
   -5.4095   -4.4895   -1.4973 C   0  0  0  0  0  0  0  0  0  0  0  0
   -7.5619   -0.8395   -0.3091 C   0  0  0  0  0  0  0  0  0  0  0  0
   -8.1508    0.4809   -0.0325 C   0  0  0  0  0  0  0  0  0  0  0  0
   -9.2491    2.8939    0.4755 C   0  0  0  0  0  0  0  0  0  0  0  0
   -7.8964    2.7487    0.2947 C   0  0  0  0  0  0  0  0  0  0  0  0
   -9.5057    0.5846    0.1415 C   0  0  0  0  0  0  0  0  0  0  0  0
  -10.1072    1.8240    0.4073 C   0  0  0  0  0  0  0  0  0  0  0  0
   -9.7564    4.1532    0.7323 C   0  0  0  0  0  0  0  0  0  0  0  0
   -7.0354    3.8316    0.3636 C   0  0  0  0  0  0  0  0  0  0  0  0
   -8.9023    5.2320    0.8011 C   0  0  0  0  0  0  0  0  0  0  0  0
   -7.5422    5.0874    0.6190 C   0  0  0  0  0  0  0  0  0  0  0  0
   -1.9394   -5.7272   -1.5025 C   0  0  0  0  0  0  0  0  0  0  0  0
   -7.4930   -5.5463   -2.1337 C   0  0  0  0  0  0  0  0  0  0  0  0
   -5.6134   -0.1163   -0.3057 H   0  0  0  0  0  0  0  0  0  0  0  0
    4.7790    3.6472   -0.5665 H   0  0  0  0  0  0  0  0  0  0  0  0
    4.8654    2.6078   -2.0364 H   0  0  0  0  0  0  0  0  0  0  0  0
    5.5515    0.3357   -1.7331 H   0  0  0  0  0  0  0  0  0  0  0  0
    5.0963   -0.5072   -0.2017 H   0  0  0  0  0  0  0  0  0  0  0  0
    7.0954    3.0374   -2.0401 H   0  0  0  0  0  0  0  0  0  0  0  0
    7.0057    3.8836   -0.4525 H   0  0  0  0  0  0  0  0  0  0  0  0
    5.7323    2.0511    1.5418 H   0  0  0  0  0  0  0  0  0  0  0  0
    4.1395    2.8067    1.2572 H   0  0  0  0  0  0  0  0  0  0  0  0
    4.5986   -0.1485    1.7421 H   0  0  0  0  0  0  0  0  0  0  0  0
    4.1627    1.0107    3.0216 H   0  0  0  0  0  0  0  0  0  0  0  0
    7.1720   -1.3730    0.5291 H   0  0  0  0  0  0  0  0  0  0  0  0
    9.2843    3.0329   -0.1012 H   0  0  0  0  0  0  0  0  0  0  0  0
    2.9387   -1.0847    0.2315 H   0  0  0  0  0  0  0  0  0  0  0  0
    1.9041    2.1081    2.8684 H   0  0  0  0  0  0  0  0  0  0  0  0
    0.6325   -1.3986   -0.2559 H   0  0  0  0  0  0  0  0  0  0  0  0
   -0.5090    1.7276    2.3450 H   0  0  0  0  0  0  0  0  0  0  0  0
    8.5978   -2.8436    0.5834 H   0  0  0  0  0  0  0  0  0  0  0  0
    8.1347   -2.3375    2.2144 H   0  0  0  0  0  0  0  0  0  0  0  0
    9.7221   -3.2622    1.9456 H   0  0  0  0  0  0  0  0  0  0  0  0
   12.0315    2.5065   -0.1146 H   0  0  0  0  0  0  0  0  0  0  0  0
   10.8913    3.2928    1.0970 H   0  0  0  0  0  0  0  0  0  0  0  0
   12.4206    2.5259    1.6218 H   0  0  0  0  0  0  0  0  0  0  0  0
   -2.3286   -3.5176   -0.7639 H   0  0  0  0  0  0  0  0  0  0  0  0
   -7.1542   -3.2953   -1.3045 H   0  0  0  0  0  0  0  0  0  0  0  0
  -10.1000   -0.3103    0.0711 H   0  0  0  0  0  0  0  0  0  0  0  0
  -10.8260    4.2324    0.8684 H   0  0  0  0  0  0  0  0  0  0  0  0
   -5.9708    3.7024    0.2180 H   0  0  0  0  0  0  0  0  0  0  0  0
   -9.3073    6.2243    1.0016 H   0  0  0  0  0  0  0  0  0  0  0  0
   -6.8763    5.9586    0.6754 H   0  0  0  0  0  0  0  0  0  0  0  0
   -1.4325   -4.8812   -1.9993 H   0  0  0  0  0  0  0  0  0  0  0  0
   -1.6851   -5.6691   -0.4089 H   0  0  0  0  0  0  0  0  0  0  0  0
   -1.5233   -6.6631   -1.9493 H   0  0  0  0  0  0  0  0  0  0  0  0
   -7.8674   -6.4604   -2.6511 H   0  0  0  0  0  0  0  0  0  0  0  0
   -7.9535   -5.4795   -1.1370 H   0  0  0  0  0  0  0  0  0  0  0  0
   -7.8299   -4.6516   -2.7118 H   0  0  0  0  0  0  0  0  0  0  0  0
  1 23  1  0
  1 31  1  0
  2 24  1  0
  2 32  1  0
  3 38  1  0
  3 50  1  0
  4 39  1  0
  4 51  1  0
  5 41  1  0
  5 43  1  0
  6 40  2  0
  7 45  2  0
  8 14  1  0
  8 15  1  0
  8 19  1  0
  9 10  1  0
  9 11  1  0
  9 30  1  0
 10 33  2  0
 11 12  2  0
 12 33  1  0
 13 35  1  0
 13 40  1  0
 14 16  1  0
 15 17  1  0
 16 18  1  0
 17 18  2  0
 17 21  1  0
 18 22  1  0
 19 20  1  0
 20 25  1  0
 21 23  2  0
 22 24  2  0
 23 24  1  0
 25 26  2  0
 25 27  1  0
 26 28  1  0
 27 29  2  0
 28 30  2  0
 29 30  1  0
 33 34  1  0
 34 35  1  0
 34 36  2  0
 35 37  2  0
 36 38  1  0
 37 39  1  0
 38 39  2  0
 40 41  1  0
 41 44  2  0
 42 43  2  0
 42 45  1  0
 42 46  1  0
 43 47  1  0
 44 45  1  0
 46 48  2  0
 47 49  2  0
 48 49  1  0
 13 52  1  0
 14 53  1  0
 14 54  1  0
 15 55  1  0
 15 56  1  0
 16 57  1  0
 16 58  1  0
 19 59  1  0
 19 60  1  0
 20 61  1  0
 20 62  1  0
 21 63  1  0
 22 64  1  0
 26 65  1  0
 27 66  1  0
 28 67  1  0
 29 68  1  0
 31 69  1  0
 31 70  1  0
 31 71  1  0
 32 72  1  0
 32 73  1  0
 32 74  1  0
 36 75  1  0
 37 76  1  0
 44 77  1  0
 46 78  1  0
 47 79  1  0
 48 80  1  0
 49 81  1  0
 50 82  1  0
 50 83  1  0
 50 84  1  0
 51 85  1  0
 51 86  1  0
 51 87  1  0
M  END

