404770039
     RDKit          3D

 87 88  0  0  1  0  0  0  0  0999 V2000
    3.2924    3.3299    1.7314 C   0  0  0  0  0  0  0  0  0  0  0  0
    2.3772    2.0968    1.5909 C   0  0  2  0  0  0  0  0  0  0  0  0
    2.9036    1.1227    0.6155 C   0  0  0  0  0  0  0  0  0  0  0  0
    2.7859   -0.3430    0.7674 C   0  0  0  0  0  0  0  0  0  0  0  0
    3.9207   -0.8935    0.1060 C   0  0  0  0  0  0  0  0  0  0  0  0
    4.1603   -2.2301   -0.0014 C   0  0  0  0  0  0  0  0  0  0  0  0
    3.2425   -3.0212    0.5633 C   0  0  0  0  0  0  0  0  0  0  0  0
    2.0650   -2.6004    1.2504 C   0  0  0  0  0  0  0  0  0  0  0  0
    1.8550   -1.2215    1.3439 C   0  0  0  0  0  0  0  0  0  0  0  0
    0.7254   -0.6955    2.0106 O   0  0  0  0  0  0  0  0  0  0  0  0
    1.3254   -3.7584    1.6789 N   0  0  0  0  0  0  0  0  0  0  0  0
    0.0034   -4.2635    1.4860 C   0  0  0  0  0  0  0  0  0  0  0  0
   -0.6662   -4.7642    2.4513 O   0  0  0  0  0  0  0  0  0  0  0  0
   -0.7782   -4.3003    0.2289 C   0  0  0  0  0  0  0  0  0  0  0  0
   -0.8607   -3.2766   -0.6313 C   0  0  0  0  0  0  0  0  0  0  0  0
   -1.0358   -1.8938   -0.3468 C   0  0  0  0  0  0  0  0  0  0  0  0
   -2.0992   -1.4481    0.2872 C   0  0  0  0  0  0  0  0  0  0  0  0
   -3.4268   -1.6098   -0.2263 C   0  0  1  0  0  0  0  0  0  0  0  0
   -4.1118   -0.4034   -0.7493 C   0  0  2  0  0  0  0  0  0  0  0  0
   -3.3469    0.7096   -1.3050 C   0  0  0  0  0  0  0  0  0  0  0  0
   -2.1720    1.2028   -1.0126 C   0  0  0  0  0  0  0  0  0  0  0  0
   -1.6432    1.8153    0.2559 C   0  0  1  0  0  0  0  0  0  0  0  0
   -0.9370    3.1275   -0.0293 C   0  0  2  0  0  0  0  0  0  0  0  0
    0.5978    2.9697   -0.0062 C   0  0  2  0  0  0  0  0  0  0  0  0
    0.9943    2.6246    1.3771 C   0  0  0  0  0  0  0  0  0  0  0  0
    1.1906    4.0879   -0.5330 O   0  0  0  0  0  0  0  0  0  0  0  0
    1.8570    3.9878   -1.7071 C   0  0  0  0  0  0  0  0  0  0  0  0
   -1.3647    4.1063    0.8374 O   0  0  0  0  0  0  0  0  0  0  0  0
   -2.7030    2.0764    1.2924 C   0  0  0  0  0  0  0  0  0  0  0  0
   -4.0615    1.4137   -2.4612 C   0  0  0  0  0  0  0  0  0  0  0  0
   -4.9197    0.1085    0.2991 O   0  0  0  0  0  0  0  0  0  0  0  0
   -6.2902    0.0988    0.3139 C   0  0  0  0  0  0  0  0  0  0  0  0
   -6.9096   -0.3889   -0.6527 O   0  0  0  0  0  0  0  0  0  0  0  0
   -7.0070    0.6283    1.4004 N   0  0  0  0  0  0  0  0  0  0  0  0
   -3.4394   -2.5840   -1.1961 O   0  0  0  0  0  0  0  0  0  0  0  0
   -4.3159   -3.6241   -0.9563 C   0  0  0  0  0  0  0  0  0  0  0  0
   -1.5508   -5.5171   -0.2086 C   0  0  0  0  0  0  0  0  0  0  0  0
    5.2764   -2.7446   -0.6484 O   0  0  0  0  0  0  0  0  0  0  0  0
    4.9158   -0.0447   -0.5262 N   0  0  0  0  0  0  0  0  0  0  0  0
    4.9038    0.3034   -1.9096 C   0  0  0  0  0  0  0  0  0  0  0  0
    6.0958    1.1733   -2.2212 C   0  0  0  0  0  0  0  0  0  0  0  0
    6.9826    0.8042   -3.1024 C   0  0  0  0  0  0  0  0  0  0  0  0
    2.8373    3.9476    2.5363 H   0  0  0  0  0  0  0  0  0  0  0  0
    3.3293    3.8991    0.7821 H   0  0  0  0  0  0  0  0  0  0  0  0
    4.3099    3.0495    2.0595 H   0  0  0  0  0  0  0  0  0  0  0  0
    2.3592    1.6861    2.6522 H   0  0  0  0  0  0  0  0  0  0  0  0
    2.6251    1.4929   -0.3968 H   0  0  0  0  0  0  0  0  0  0  0  0
    4.0283    1.4200    0.5914 H   0  0  0  0  0  0  0  0  0  0  0  0
    3.4700   -4.1245    0.4809 H   0  0  0  0  0  0  0  0  0  0  0  0
    0.0293   -0.4117    2.4230 H   0  0  0  0  0  0  0  0  0  0  0  0
    1.9367   -4.4539    2.2866 H   0  0  0  0  0  0  0  0  0  0  0  0
   -0.7366   -3.5520   -1.7110 H   0  0  0  0  0  0  0  0  0  0  0  0
   -0.2383   -1.1579   -0.6590 H   0  0  0  0  0  0  0  0  0  0  0  0
   -1.9502   -0.9082    1.2545 H   0  0  0  0  0  0  0  0  0  0  0  0
   -4.1265   -2.0113    0.5756 H   0  0  0  0  0  0  0  0  0  0  0  0
   -4.8843   -0.7941   -1.4878 H   0  0  0  0  0  0  0  0  0  0  0  0
   -1.3452    1.2115   -1.7772 H   0  0  0  0  0  0  0  0  0  0  0  0
   -0.8672    1.1249    0.5941 H   0  0  0  0  0  0  0  0  0  0  0  0
   -1.2279    3.4261   -1.0639 H   0  0  0  0  0  0  0  0  0  0  0  0
    0.7818    2.1183   -0.6793 H   0  0  0  0  0  0  0  0  0  0  0  0
    0.2444    2.0212    1.9538 H   0  0  0  0  0  0  0  0  0  0  0  0
    0.9542    3.6103    1.9488 H   0  0  0  0  0  0  0  0  0  0  0  0
    2.2161    5.0402   -1.9508 H   0  0  0  0  0  0  0  0  0  0  0  0
    1.2976    3.6667   -2.5921 H   0  0  0  0  0  0  0  0  0  0  0  0
    2.8510    3.4429   -1.6406 H   0  0  0  0  0  0  0  0  0  0  0  0
   -1.9796    4.7637    0.4199 H   0  0  0  0  0  0  0  0  0  0  0  0
   -2.4250    2.9251    1.9645 H   0  0  0  0  0  0  0  0  0  0  0  0
   -2.9323    1.1587    1.8388 H   0  0  0  0  0  0  0  0  0  0  0  0
   -3.6230    2.4204    0.7795 H   0  0  0  0  0  0  0  0  0  0  0  0
   -4.7199    2.2272   -2.0883 H   0  0  0  0  0  0  0  0  0  0  0  0
   -4.7543    0.7274   -2.9895 H   0  0  0  0  0  0  0  0  0  0  0  0
   -3.3426    1.7329   -3.2420 H   0  0  0  0  0  0  0  0  0  0  0  0
   -7.8786    0.1755    1.7748 H   0  0  0  0  0  0  0  0  0  0  0  0
   -6.7030    1.5012    1.8872 H   0  0  0  0  0  0  0  0  0  0  0  0
   -5.3636   -3.1907   -0.9173 H   0  0  0  0  0  0  0  0  0  0  0  0
   -4.1104   -4.2368   -0.0801 H   0  0  0  0  0  0  0  0  0  0  0  0
   -4.3107   -4.2803   -1.8450 H   0  0  0  0  0  0  0  0  0  0  0  0
   -2.3775   -5.7442    0.4972 H   0  0  0  0  0  0  0  0  0  0  0  0
   -0.8676   -6.4147   -0.0957 H   0  0  0  0  0  0  0  0  0  0  0  0
   -1.8266   -5.5219   -1.2573 H   0  0  0  0  0  0  0  0  0  0  0  0
    5.9771   -2.1298   -1.0773 H   0  0  0  0  0  0  0  0  0  0  0  0
    5.6599    0.3052    0.0963 H   0  0  0  0  0  0  0  0  0  0  0  0
    4.0140    0.9123   -2.1433 H   0  0  0  0  0  0  0  0  0  0  0  0
    4.9356   -0.6015   -2.5674 H   0  0  0  0  0  0  0  0  0  0  0  0
    6.1983    2.1073   -1.6960 H   0  0  0  0  0  0  0  0  0  0  0  0
    7.8468    1.4009   -3.3504 H   0  0  0  0  0  0  0  0  0  0  0  0
    6.8580   -0.1423   -3.6163 H   0  0  0  0  0  0  0  0  0  0  0  0
  2  1  1  0
  2  3  1  0
  3  4  1  0
  4  5  2  0
  5  6  1  0
  6  7  2  0
  7  8  1  0
  8  9  2  0
  4  9  1  0
  9 10  1  0
  8 11  1  0
 11 12  1  0
 12 13  2  0
 12 14  1  0
 14 15  2  0
 15 16  1  0
 16 17  2  0
 17 18  1  0
 18 19  1  0
 19 20  1  0
 20 21  2  0
 21 22  1  0
 22 23  1  0
 23 24  1  0
 24 25  1  0
  2 25  1  0
 24 26  1  0
 26 27  1  0
 23 28  1  0
 22 29  1  0
 20 30  1  0
 19 31  1  0
 31 32  1  0
 32 33  2  0
 32 34  1  0
 18 35  1  0
 35 36  1  0
 14 37  1  0
  6 38  1  0
  5 39  1  0
 39 40  1  0
 40 41  1  0
 41 42  2  3
  1 43  1  0
  1 44  1  0
  1 45  1  0
  2 46  1  1
  3 47  1  0
  3 48  1  0
  7 49  1  0
 10 50  1  0
 11 51  1  0
 15 52  1  0
 16 53  1  0
 17 54  1  0
 18 55  1  1
 19 56  1  6
 21 57  1  0
 22 58  1  1
 23 59  1  6
 24 60  1  6
 25 61  1  0
 25 62  1  0
 27 63  1  0
 27 64  1  0
 27 65  1  0
 28 66  1  0
 29 67  1  0
 29 68  1  0
 29 69  1  0
 30 70  1  0
 30 71  1  0
 30 72  1  0
 34 73  1  0
 34 74  1  0
 36 75  1  0
 36 76  1  0
 36 77  1  0
 37 78  1  0
 37 79  1  0
 37 80  1  0
 38 81  1  0
 39 82  1  0
 40 83  1  0
 40 84  1  0
 41 85  1  0
 42 86  1  0
 42 87  1  0
M  END

