404772041
     RDKit          3D

 28 27  0  0  1  0  0  0  0  0999 V2000
    1.5419   -0.9174   -0.7716 C   0  0  0  0  0  0  0  0  0  0  0  0
    2.9736    0.8608    0.2980 C   0  0  0  0  0  0  0  0  0  0  0  0
    0.2286   -0.2460   -0.5717 C   0  0  0  0  0  0  0  0  0  0  0  0
    1.9259    1.6502    0.7310 O   0  0  0  0  0  0  0  0  0  0  0  0
   -0.4303   -0.5450    0.7282 C   0  0  0  0  0  0  0  0  0  0  0  0
   -1.7320    0.1992    0.8206 C   0  0  0  0  0  0  0  0  0  0  0  0
   -2.7304   -0.1418   -0.2488 C   0  0  0  0  0  0  0  0  0  0  0  0
   -4.0006    0.6903   -0.0044 C   0  0  0  0  0  0  0  0  0  0  0  0
    2.5998   -0.5789    0.2375 C   0  0  0  0  0  0  0  0  0  0  0  0
    3.7574   -1.2682   -0.1907 O   0  0  0  0  0  0  0  0  0  0  0  0
    1.4684   -2.0140   -0.9147 H   0  0  0  0  0  0  0  0  0  0  0  0
    1.9397   -0.5431   -1.7632 H   0  0  0  0  0  0  0  0  0  0  0  0
    3.7917    0.9523    1.0527 H   0  0  0  0  0  0  0  0  0  0  0  0
    3.3396    1.1953   -0.7037 H   0  0  0  0  0  0  0  0  0  0  0  0
   -0.5153   -0.5797   -1.3687 H   0  0  0  0  0  0  0  0  0  0  0  0
    0.3458    0.8428   -0.6973 H   0  0  0  0  0  0  0  0  0  0  0  0
    2.1582    2.5951    0.7608 H   0  0  0  0  0  0  0  0  0  0  0  0
   -0.5999   -1.6422    0.8678 H   0  0  0  0  0  0  0  0  0  0  0  0
    0.1752   -0.2445    1.6032 H   0  0  0  0  0  0  0  0  0  0  0  0
   -2.2549    0.0036    1.7950 H   0  0  0  0  0  0  0  0  0  0  0  0
   -1.5771    1.3114    0.7990 H   0  0  0  0  0  0  0  0  0  0  0  0
   -3.0533   -1.2015   -0.1999 H   0  0  0  0  0  0  0  0  0  0  0  0
   -2.3951    0.0797   -1.2819 H   0  0  0  0  0  0  0  0  0  0  0  0
   -4.6842    0.5707   -0.8649 H   0  0  0  0  0  0  0  0  0  0  0  0
   -3.7127    1.7532    0.0326 H   0  0  0  0  0  0  0  0  0  0  0  0
   -4.4945    0.4041    0.9338 H   0  0  0  0  0  0  0  0  0  0  0  0
    2.2808   -0.9405    1.2396 H   0  0  0  0  0  0  0  0  0  0  0  0
    3.6536   -2.2458   -0.0899 H   0  0  0  0  0  0  0  0  0  0  0  0
  1  9  1  0
  2  9  1  0
  1  3  1  0
  2  4  1  0
  3  5  1  0
  5  6  1  0
  6  7  1  0
  7  8  1  0
  9 10  1  0
  1 11  1  0
  1 12  1  0
  2 13  1  0
  2 14  1  0
  3 15  1  0
  3 16  1  0
  4 17  1  0
  5 18  1  0
  5 19  1  0
  6 20  1  0
  6 21  1  0
  7 22  1  0
  7 23  1  0
  8 24  1  0
  8 25  1  0
  8 26  1  0
  9 27  1  0
 10 28  1  0
M  END

