404771112
     RDKit          3D

104109  0  0  1  0  0  0  0  0999 V2000
   -7.7189   -1.2156   -3.3668 C   0  0  0  0  0  0  0  0  0  0  0  0
   -6.9597   -0.5018   -2.2539 C   0  0  0  0  0  0  0  0  0  0  0  0
   -5.5997   -0.3471   -2.7189 N   0  0  0  0  0  0  0  0  0  0  0  0
   -5.5859    0.6007   -3.8506 C   0  0  0  0  0  0  0  0  0  0  0  0
   -4.2001    0.8067   -4.3849 C   0  0  0  0  0  0  0  0  0  0  0  0
   -4.7985    0.2519   -1.7044 C   0  0  0  0  0  0  0  0  0  0  0  0
   -4.5605   -0.6302   -0.4985 C   0  0  0  0  0  0  0  0  0  0  0  0
   -3.7455    0.0245    0.4600 N   0  0  0  0  0  0  0  0  0  0  0  0
   -4.2876    0.8066    1.4464 C   0  0  0  0  0  0  0  0  0  0  0  0
   -5.5835    1.1405    1.7725 C   0  0  0  0  0  0  0  0  0  0  0  0
   -5.9150    1.9534    2.8223 C   0  0  0  0  0  0  0  0  0  0  0  0
   -4.8841    2.4562    3.5835 C   0  0  0  0  0  0  0  0  0  0  0  0
   -3.5703    2.1428    3.2863 C   0  0  0  0  0  0  0  0  0  0  0  0
   -3.2674    1.3139    2.2130 C   0  0  0  0  0  0  0  0  0  0  0  0
   -2.1172    0.8199    1.6647 C   0  0  0  0  0  0  0  0  0  0  0  0
   -2.4406    0.0020    0.5520 C   0  0  0  0  0  0  0  0  0  0  0  0
   -1.2498   -0.5667   -0.0810 C   0  0  1  0  0  0  0  0  0  0  0  0
   -1.4527   -1.4669   -1.2260 C   0  0  0  0  0  0  0  0  0  0  0  0
   -0.1086   -1.9693   -1.6941 C   0  0  1  0  0  0  0  0  0  0  0  0
    0.6745   -0.7656   -2.1828 C   0  0  2  0  0  0  0  0  0  0  0  0
    2.0830   -1.2466   -2.4635 C   0  0  0  0  0  0  0  0  0  0  0  0
    2.7910   -1.7352   -1.2506 C   0  0  2  0  0  0  0  0  0  0  0  0
    1.8595   -2.1914   -0.1548 C   0  0  1  0  0  0  0  0  0  0  0  0
    0.6622   -2.8762   -0.8477 C   0  0  1  0  0  0  0  0  0  0  0  0
   -0.0129   -3.7916    0.0593 C   0  0  0  0  0  0  0  0  0  0  0  0
   -1.2265   -3.8773    0.2283 O   0  0  0  0  0  0  0  0  0  0  0  0
    0.7772   -4.6716    0.8260 O   0  0  0  0  0  0  0  0  0  0  0  0
    0.1729   -5.5817    1.7238 C   0  0  0  0  0  0  0  0  0  0  0  0
    2.4052   -3.1200    0.7011 O   0  0  0  0  0  0  0  0  0  0  0  0
    2.4677   -2.6995    2.0195 C   0  0  0  0  0  0  0  0  0  0  0  0
    3.6687   -0.7141   -0.8018 O   0  0  0  0  0  0  0  0  0  0  0  0
    5.0322   -0.8452   -0.7103 C   0  0  0  0  0  0  0  0  0  0  0  0
    5.5418   -1.9431   -1.0460 O   0  0  0  0  0  0  0  0  0  0  0  0
    5.9210    0.2078   -0.2489 C   0  0  0  0  0  0  0  0  0  0  0  0
    7.2806    0.0079   -0.1789 C   0  0  0  0  0  0  0  0  0  0  0  0
    8.1325    1.0018    0.2566 C   0  0  0  0  0  0  0  0  0  0  0  0
    7.6259    2.2427    0.6385 C   0  0  0  0  0  0  0  0  0  0  0  0
    6.2539    2.4671    0.5760 C   0  0  0  0  0  0  0  0  0  0  0  0
    5.4548    1.4448    0.1361 C   0  0  0  0  0  0  0  0  0  0  0  0
    5.7395    3.7008    0.9547 O   0  0  0  0  0  0  0  0  0  0  0  0
    4.3224    3.8709    0.8674 C   0  0  0  0  0  0  0  0  0  0  0  0
    8.4122    3.2825    1.0830 O   0  0  0  0  0  0  0  0  0  0  0  0
    8.7440    3.4931    2.4307 C   0  0  0  0  0  0  0  0  0  0  0  0
    9.4969    0.7864    0.3220 O   0  0  0  0  0  0  0  0  0  0  0  0
   10.0014   -0.4724   -0.0667 C   0  0  0  0  0  0  0  0  0  0  0  0
    0.5705    0.4399   -1.3513 C   0  0  0  0  0  0  0  0  0  0  0  0
   -0.3511    0.5047   -0.2889 N   0  0  0  0  0  0  0  0  0  0  0  0
    0.1760    1.1620    0.8448 C   0  0  0  0  0  0  0  0  0  0  0  0
   -0.7032    1.0094    2.0338 C   0  0  0  0  0  0  0  0  0  0  0  0
   -7.2413    2.2369    3.0791 O   0  0  0  0  0  0  0  0  0  0  0  0
   -7.5605    3.0814    4.1725 C   0  0  0  0  0  0  0  0  0  0  0  0
   -8.4409   -1.9060   -2.8473 H   0  0  0  0  0  0  0  0  0  0  0  0
   -7.0011   -1.8334   -3.9291 H   0  0  0  0  0  0  0  0  0  0  0  0
   -8.2654   -0.4763   -3.9871 H   0  0  0  0  0  0  0  0  0  0  0  0
   -7.4243    0.4992   -2.1376 H   0  0  0  0  0  0  0  0  0  0  0  0
   -7.0702   -1.0200   -1.2970 H   0  0  0  0  0  0  0  0  0  0  0  0
   -6.2265    0.1829   -4.6413 H   0  0  0  0  0  0  0  0  0  0  0  0
   -6.0774    1.5662   -3.5376 H   0  0  0  0  0  0  0  0  0  0  0  0
   -3.7126    1.6763   -3.9101 H   0  0  0  0  0  0  0  0  0  0  0  0
   -3.6001   -0.0974   -4.2900 H   0  0  0  0  0  0  0  0  0  0  0  0
   -4.2945    1.0760   -5.4766 H   0  0  0  0  0  0  0  0  0  0  0  0
   -5.2715    1.2033   -1.3814 H   0  0  0  0  0  0  0  0  0  0  0  0
   -3.7778    0.4735   -2.1209 H   0  0  0  0  0  0  0  0  0  0  0  0
   -4.2734   -1.5984   -0.8750 H   0  0  0  0  0  0  0  0  0  0  0  0
   -5.5799   -0.7915   -0.0287 H   0  0  0  0  0  0  0  0  0  0  0  0
   -6.3866    0.7472    1.1770 H   0  0  0  0  0  0  0  0  0  0  0  0
   -5.1337    3.1034    4.4208 H   0  0  0  0  0  0  0  0  0  0  0  0
   -2.7583    2.5298    3.8730 H   0  0  0  0  0  0  0  0  0  0  0  0
   -0.7834   -1.2107    0.7326 H   0  0  0  0  0  0  0  0  0  0  0  0
   -1.8250   -0.9021   -2.1520 H   0  0  0  0  0  0  0  0  0  0  0  0
   -2.0683   -2.3234   -1.0161 H   0  0  0  0  0  0  0  0  0  0  0  0
   -0.3788   -2.5513   -2.6379 H   0  0  0  0  0  0  0  0  0  0  0  0
    0.2561   -0.5099   -3.2032 H   0  0  0  0  0  0  0  0  0  0  0  0
    2.6045   -0.4229   -2.9918 H   0  0  0  0  0  0  0  0  0  0  0  0
    2.0037   -2.0959   -3.1796 H   0  0  0  0  0  0  0  0  0  0  0  0
    3.4285   -2.6006   -1.4988 H   0  0  0  0  0  0  0  0  0  0  0  0
    1.5908   -1.3297    0.4381 H   0  0  0  0  0  0  0  0  0  0  0  0
    1.2462   -3.5943   -1.5486 H   0  0  0  0  0  0  0  0  0  0  0  0
   -0.6273   -6.1603    1.2233 H   0  0  0  0  0  0  0  0  0  0  0  0
    0.9521   -6.3244    2.0148 H   0  0  0  0  0  0  0  0  0  0  0  0
   -0.1863   -5.0757    2.6443 H   0  0  0  0  0  0  0  0  0  0  0  0
    3.0831   -1.7861    2.1510 H   0  0  0  0  0  0  0  0  0  0  0  0
    1.4519   -2.5845    2.4476 H   0  0  0  0  0  0  0  0  0  0  0  0
    2.9697   -3.5029    2.5968 H   0  0  0  0  0  0  0  0  0  0  0  0
    7.6839   -0.9624   -0.4776 H   0  0  0  0  0  0  0  0  0  0  0  0
    4.3877    1.6110    0.0843 H   0  0  0  0  0  0  0  0  0  0  0  0
    3.7926    3.1308    1.5132 H   0  0  0  0  0  0  0  0  0  0  0  0
    3.9491    3.7036   -0.1575 H   0  0  0  0  0  0  0  0  0  0  0  0
    4.0186    4.8663    1.2484 H   0  0  0  0  0  0  0  0  0  0  0  0
    8.1093    4.2518    2.9262 H   0  0  0  0  0  0  0  0  0  0  0  0
    9.7943    3.8241    2.5181 H   0  0  0  0  0  0  0  0  0  0  0  0
    8.6542    2.5507    3.0113 H   0  0  0  0  0  0  0  0  0  0  0  0
    9.6212   -1.2963    0.5793 H   0  0  0  0  0  0  0  0  0  0  0  0
    9.7467   -0.7253   -1.1273 H   0  0  0  0  0  0  0  0  0  0  0  0
   11.1253   -0.4407   -0.0354 H   0  0  0  0  0  0  0  0  0  0  0  0
    0.4014    1.3641   -1.9874 H   0  0  0  0  0  0  0  0  0  0  0  0
    1.5999    0.6435   -0.9208 H   0  0  0  0  0  0  0  0  0  0  0  0
    0.1854    2.2681    0.6002 H   0  0  0  0  0  0  0  0  0  0  0  0
    1.2423    0.9366    1.0634 H   0  0  0  0  0  0  0  0  0  0  0  0
   -0.3494    0.1531    2.6573 H   0  0  0  0  0  0  0  0  0  0  0  0
   -0.6118    1.9197    2.6771 H   0  0  0  0  0  0  0  0  0  0  0  0
   -7.0876    2.6007    5.0711 H   0  0  0  0  0  0  0  0  0  0  0  0
   -7.1466    4.0875    4.0636 H   0  0  0  0  0  0  0  0  0  0  0  0
   -8.6661    3.1232    4.2785 H   0  0  0  0  0  0  0  0  0  0  0  0
  1  2  1  0
  2  3  1  0
  3  4  1  0
  4  5  1  0
  3  6  1  0
  6  7  1  0
  7  8  1  0
  8  9  1  0
  9 10  2  0
 10 11  1  0
 11 12  2  0
 12 13  1  0
 13 14  2  0
  9 14  1  0
 14 15  1  0
 15 16  2  0
  8 16  1  0
 17 16  1  0
 17 18  1  0
 19 18  1  0
 19 20  1  0
 20 21  1  0
 21 22  1  0
 22 23  1  0
 23 24  1  0
 19 24  1  0
 24 25  1  0
 25 26  2  0
 25 27  1  0
 27 28  1  0
 23 29  1  0
 29 30  1  0
 22 31  1  0
 31 32  1  0
 32 33  2  0
 32 34  1  0
 34 35  2  0
 35 36  1  0
 36 37  2  0
 37 38  1  0
 38 39  2  0
 34 39  1  0
 38 40  1  0
 40 41  1  0
 37 42  1  0
 42 43  1  0
 36 44  1  0
 44 45  1  0
 20 46  1  0
 46 47  1  0
 17 47  1  0
 47 48  1  0
 48 49  1  0
 15 49  1  0
 11 50  1  0
 50 51  1  0
  1 52  1  0
  1 53  1  0
  1 54  1  0
  2 55  1  0
  2 56  1  0
  4 57  1  0
  4 58  1  0
  5 59  1  0
  5 60  1  0
  5 61  1  0
  6 62  1  0
  6 63  1  0
  7 64  1  0
  7 65  1  0
 10 66  1  0
 12 67  1  0
 13 68  1  0
 17 69  1  1
 18 70  1  0
 18 71  1  0
 19 72  1  6
 20 73  1  6
 21 74  1  0
 21 75  1  0
 22 76  1  6
 23 77  1  1
 24 78  1  6
 28 79  1  0
 28 80  1  0
 28 81  1  0
 30 82  1  0
 30 83  1  0
 30 84  1  0
 35 85  1  0
 39 86  1  0
 41 87  1  0
 41 88  1  0
 41 89  1  0
 43 90  1  0
 43 91  1  0
 43 92  1  0
 45 93  1  0
 45 94  1  0
 45 95  1  0
 46 96  1  0
 46 97  1  0
 48 98  1  0
 48 99  1  0
 49100  1  0
 49101  1  0
 51102  1  0
 51103  1  0
 51104  1  0
M  END

