404772753
     RDKit          3D

 46 48  0  0  1  0  0  0  0  0999 V2000
    1.4475    4.7022    0.7737 C   0  0  0  0  0  0  0  0  0  0  0  0
    0.7240    3.4762    0.5334 N   0  0  0  0  0  0  0  0  0  0  0  0
   -0.5172    3.3367    0.9975 C   0  0  0  0  0  0  0  0  0  0  0  0
   -1.1114    4.2597    1.6452 O   0  0  0  0  0  0  0  0  0  0  0  0
   -1.1772    2.1612    0.7715 C   0  0  0  0  0  0  0  0  0  0  0  0
   -0.5182    1.1333    0.0546 C   0  0  0  0  0  0  0  0  0  0  0  0
   -1.2839   -0.0101   -0.1745 N   0  0  0  0  0  0  0  0  0  0  0  0
   -1.7112   -0.4107   -1.4800 C   0  0  0  0  0  0  0  0  0  0  0  0
   -3.2445   -0.5419   -1.4935 C   0  0  0  0  0  0  0  0  0  0  0  0
   -3.7627   -1.3560   -0.3760 C   0  0  0  0  0  0  0  0  0  0  0  0
   -2.8312   -1.7312    0.7122 C   0  0  1  0  0  0  0  0  0  0  0  0
   -2.3398   -3.0966    0.5932 N   0  0  0  0  0  0  0  0  0  0  0  0
   -1.7237   -0.7827    0.9667 C   0  0  0  0  0  0  0  0  0  0  0  0
    0.7323    1.2922   -0.4023 N   0  0  0  0  0  0  0  0  0  0  0  0
    1.3802    0.2748   -1.1328 C   0  0  0  0  0  0  0  0  0  0  0  0
    2.1535   -0.7715   -0.4727 C   0  0  0  0  0  0  0  0  0  0  0  0
    1.4657   -1.9359   -0.1037 C   0  0  0  0  0  0  0  0  0  0  0  0
    2.0352   -2.9903    0.5777 C   0  0  0  0  0  0  0  0  0  0  0  0
    1.2943   -4.0986    0.9086 F   0  0  0  0  0  0  0  0  0  0  0  0
    3.3620   -2.8690    0.9036 C   0  0  0  0  0  0  0  0  0  0  0  0
    4.0686   -1.7506    0.5587 C   0  0  0  0  0  0  0  0  0  0  0  0
    3.4696   -0.7007   -0.1310 C   0  0  0  0  0  0  0  0  0  0  0  0
    4.3403    0.3969   -0.5524 C   0  0  0  0  0  0  0  0  0  0  0  0
    5.0351    1.2380   -0.9066 N   0  0  0  0  0  0  0  0  0  0  0  0
    1.3339    2.4895   -0.1464 C   0  0  0  0  0  0  0  0  0  0  0  0
    2.4893    2.7287   -0.5426 O   0  0  0  0  0  0  0  0  0  0  0  0
    1.9867    4.9689   -0.1559 H   0  0  0  0  0  0  0  0  0  0  0  0
    2.2499    4.4214    1.5228 H   0  0  0  0  0  0  0  0  0  0  0  0
    0.8020    5.5036    1.1804 H   0  0  0  0  0  0  0  0  0  0  0  0
   -2.1797    2.0048    1.1272 H   0  0  0  0  0  0  0  0  0  0  0  0
   -1.5080    0.3371   -2.2766 H   0  0  0  0  0  0  0  0  0  0  0  0
   -1.3392   -1.3804   -1.8066 H   0  0  0  0  0  0  0  0  0  0  0  0
   -3.4885   -1.0106   -2.4624 H   0  0  0  0  0  0  0  0  0  0  0  0
   -3.6985    0.4768   -1.4821 H   0  0  0  0  0  0  0  0  0  0  0  0
   -4.2106   -2.3152   -0.7946 H   0  0  0  0  0  0  0  0  0  0  0  0
   -4.6818   -0.8385    0.0321 H   0  0  0  0  0  0  0  0  0  0  0  0
   -3.4487   -1.7541    1.6583 H   0  0  0  0  0  0  0  0  0  0  0  0
   -1.6524   -3.1588   -0.1982 H   0  0  0  0  0  0  0  0  0  0  0  0
   -3.1905   -3.6522    0.2886 H   0  0  0  0  0  0  0  0  0  0  0  0
   -0.8621   -1.2671    1.4396 H   0  0  0  0  0  0  0  0  0  0  0  0
   -2.1054    0.0096    1.6973 H   0  0  0  0  0  0  0  0  0  0  0  0
    0.7249   -0.2344   -1.8911 H   0  0  0  0  0  0  0  0  0  0  0  0
    2.1096    0.8371   -1.8345 H   0  0  0  0  0  0  0  0  0  0  0  0
    0.4254   -2.0352   -0.3977 H   0  0  0  0  0  0  0  0  0  0  0  0
    3.8334   -3.7010    1.4523 H   0  0  0  0  0  0  0  0  0  0  0  0
    5.1228   -1.6553    0.8189 H   0  0  0  0  0  0  0  0  0  0  0  0
  1  2  1  0
  2  3  1  0
  3  4  2  0
  3  5  1  0
  5  6  2  0
  6  7  1  0
  7  8  1  0
  8  9  1  0
  9 10  1  0
 10 11  1  0
 11 12  1  0
 11 13  1  0
  7 13  1  0
  6 14  1  0
 14 15  1  0
 15 16  1  0
 16 17  2  0
 17 18  1  0
 18 19  1  0
 18 20  2  0
 20 21  1  0
 21 22  2  0
 16 22  1  0
 22 23  1  0
 23 24  3  0
 14 25  1  0
  2 25  1  0
 25 26  2  0
  1 27  1  0
  1 28  1  0
  1 29  1  0
  5 30  1  0
  8 31  1  0
  8 32  1  0
  9 33  1  0
  9 34  1  0
 10 35  1  0
 10 36  1  0
 11 37  1  1
 12 38  1  0
 12 39  1  0
 13 40  1  0
 13 41  1  0
 15 42  1  0
 15 43  1  0
 17 44  1  0
 20 45  1  0
 21 46  1  0
M  END

