404770892
     RDKit          3D

 40 41  0  0  1  0  0  0  0  0999 V2000
   -6.9354   -0.3109    0.5458 C   0  0  0  0  0  0  0  0  0  0  0  0
   -6.0703   -0.9346   -0.4028 C   0  0  0  0  0  0  0  0  0  0  0  0
   -6.1083   -1.5177    0.8925 O   0  0  0  0  0  0  0  0  0  0  0  0
   -4.7684   -0.2110   -0.7611 C   0  0  0  0  0  0  0  0  0  0  0  0
   -4.5357    0.8184    0.1242 O   0  0  0  0  0  0  0  0  0  0  0  0
   -3.4059    1.5214   -0.1512 C   0  0  0  0  0  0  0  0  0  0  0  0
   -2.1523    0.6593   -0.0987 C   0  0  0  0  0  0  0  0  0  0  0  0
   -2.0735    0.1454    1.1687 O   0  0  0  0  0  0  0  0  0  0  0  0
   -1.0358   -0.6970    1.3506 C   0  0  0  0  0  0  0  0  0  0  0  0
    0.3548   -0.1873    1.1542 C   0  0  0  0  0  0  0  0  0  0  0  0
    0.6717    0.2866   -0.0839 O   0  0  0  0  0  0  0  0  0  0  0  0
    1.9515    0.7477   -0.2257 C   0  0  0  0  0  0  0  0  0  0  0  0
    3.0033   -0.3020    0.0438 C   0  0  0  0  0  0  0  0  0  0  0  0
    4.2970    0.2361   -0.1199 O   0  0  0  0  0  0  0  0  0  0  0  0
    5.1715   -0.8209    0.1539 C   0  0  0  0  0  0  0  0  0  0  0  0
    6.6156   -0.4175    0.0246 C   0  0  0  0  0  0  0  0  0  0  0  0
    7.0615    0.9585   -0.0415 C   0  0  0  0  0  0  0  0  0  0  0  0
    7.0231    0.0459   -1.2264 O   0  0  0  0  0  0  0  0  0  0  0  0
   -8.0234   -0.5847    0.5500 H   0  0  0  0  0  0  0  0  0  0  0  0
   -6.6105    0.4946    1.2189 H   0  0  0  0  0  0  0  0  0  0  0  0
   -6.4663   -1.6015   -1.1723 H   0  0  0  0  0  0  0  0  0  0  0  0
   -4.9291    0.2270   -1.7671 H   0  0  0  0  0  0  0  0  0  0  0  0
   -3.9379   -0.9492   -0.8248 H   0  0  0  0  0  0  0  0  0  0  0  0
   -3.4727    1.9560   -1.1818 H   0  0  0  0  0  0  0  0  0  0  0  0
   -3.2834    2.3612    0.5476 H   0  0  0  0  0  0  0  0  0  0  0  0
   -1.2630    1.3236   -0.2736 H   0  0  0  0  0  0  0  0  0  0  0  0
   -2.1714   -0.0835   -0.9088 H   0  0  0  0  0  0  0  0  0  0  0  0
   -1.1562   -1.6407    0.7364 H   0  0  0  0  0  0  0  0  0  0  0  0
   -1.0389   -1.1224    2.4114 H   0  0  0  0  0  0  0  0  0  0  0  0
    0.4679    0.6863    1.8665 H   0  0  0  0  0  0  0  0  0  0  0  0
    1.0285   -1.0238    1.4914 H   0  0  0  0  0  0  0  0  0  0  0  0
    2.0835    1.0795   -1.2762 H   0  0  0  0  0  0  0  0  0  0  0  0
    2.0913    1.6512    0.4008 H   0  0  0  0  0  0  0  0  0  0  0  0
    2.9873   -0.6896    1.0753 H   0  0  0  0  0  0  0  0  0  0  0  0
    2.9117   -1.0883   -0.7325 H   0  0  0  0  0  0  0  0  0  0  0  0
    4.9586   -1.2247    1.1469 H   0  0  0  0  0  0  0  0  0  0  0  0
    4.9444   -1.6035   -0.6162 H   0  0  0  0  0  0  0  0  0  0  0  0
    7.3167   -1.1646    0.4601 H   0  0  0  0  0  0  0  0  0  0  0  0
    6.3866    1.7967   -0.2629 H   0  0  0  0  0  0  0  0  0  0  0  0
    8.1119    1.1802    0.2248 H   0  0  0  0  0  0  0  0  0  0  0  0
  1  2  1  0
  2  3  1  0
  1  3  1  0
  2  4  1  0
  4  5  1  0
  5  6  1  0
  6  7  1  0
  7  8  1  0
  8  9  1  0
  9 10  1  0
 10 11  1  0
 11 12  1  0
 12 13  1  0
 13 14  1  0
 14 15  1  0
 15 16  1  0
 16 17  1  0
 17 18  1  0
 16 18  1  0
  1 19  1  0
  1 20  1  0
  2 21  1  0
  4 22  1  0
  4 23  1  0
  6 24  1  0
  6 25  1  0
  7 26  1  0
  7 27  1  0
  9 28  1  0
  9 29  1  0
 10 30  1  0
 10 31  1  0
 12 32  1  0
 12 33  1  0
 13 34  1  0
 13 35  1  0
 15 36  1  0
 15 37  1  0
 16 38  1  0
 17 39  1  0
 17 40  1  0
M  END

