404772994
     RDKit          3D

 71 75  0  0  1  0  0  0  0  0999 V2000
   -2.5335   -2.5305    2.4968 C   0  0  0  0  0  0  0  0  0  0  0  0
   -2.4719   -2.9734    1.0911 C   0  0  0  0  0  0  0  0  0  0  0  0
   -1.4418   -3.9853    0.6992 C   0  0  0  0  0  0  0  0  0  0  0  0
   -3.0929   -2.2654    0.0182 C   0  0  0  0  0  0  0  0  0  0  0  0
   -4.4564   -2.2736   -0.1070 N   0  0  0  0  0  0  0  0  0  0  0  0
   -5.1100   -1.8003   -1.1971 C   0  0  0  0  0  0  0  0  0  0  0  0
   -4.4356   -1.2773   -2.2682 C   0  0  0  0  0  0  0  0  0  0  0  0
   -3.0706   -1.2374   -2.2041 C   0  0  0  0  0  0  0  0  0  0  0  0
   -2.3561   -0.6019   -3.3197 C   0  0  0  0  0  0  0  0  0  0  0  0
   -2.4148   -1.7338   -1.0480 C   0  0  0  0  0  0  0  0  0  0  0  0
   -1.0622   -1.4042   -0.9220 N   0  0  0  0  0  0  0  0  0  0  0  0
    0.0040   -2.0217   -1.3083 C   0  0  0  0  0  0  0  0  0  0  0  0
    0.0167   -3.1209   -1.9225 O   0  0  0  0  0  0  0  0  0  0  0  0
    1.2719   -1.5353   -1.0829 N   0  0  0  0  0  0  0  0  0  0  0  0
    1.4584   -0.3679   -0.4435 C   0  0  0  0  0  0  0  0  0  0  0  0
    2.7247    0.1870   -0.1658 N   0  0  0  0  0  0  0  0  0  0  0  0
    3.2014    0.3739    1.1585 C   0  0  0  0  0  0  0  0  0  0  0  0
    4.4850   -0.4845    1.2640 C   0  0  0  0  0  0  0  0  0  0  0  0
    5.4177    0.0516    0.3097 N   0  0  0  0  0  0  0  0  0  0  0  0
    4.9719    0.9356   -0.7688 C   0  0  0  0  0  0  0  0  0  0  0  0
    3.5810    0.6138   -1.2413 C   0  0  2  0  0  0  0  0  0  0  0  0
    3.0344    1.9433   -1.8330 C   0  0  0  0  0  0  0  0  0  0  0  0
    6.7968   -0.2360    0.3192 C   0  0  0  0  0  0  0  0  0  0  0  0
    7.5038    0.4714   -0.5478 O   0  0  0  0  0  0  0  0  0  0  0  0
    7.5565   -1.1385    1.1024 C   0  0  0  0  0  0  0  0  0  0  0  0
    7.1857   -1.9803    1.9735 C   0  0  0  0  0  0  0  0  0  0  0  0
    0.3415    0.3270   -0.0251 C   0  0  0  0  0  0  0  0  0  0  0  0
    0.4688    1.5546    0.5581 C   0  0  0  0  0  0  0  0  0  0  0  0
   -0.6501    2.3131    0.9296 C   0  0  0  0  0  0  0  0  0  0  0  0
   -0.5137    3.5253    1.4997 F   0  0  0  0  0  0  0  0  0  0  0  0
   -1.8691    1.7522    0.6665 C   0  0  0  0  0  0  0  0  0  0  0  0
   -1.9824    0.5380    0.0899 N   0  0  0  0  0  0  0  0  0  0  0  0
   -0.8944   -0.1965   -0.2653 C   0  0  0  0  0  0  0  0  0  0  0  0
   -3.0779    2.5383    0.9892 C   0  0  0  0  0  0  0  0  0  0  0  0
   -3.7081    3.2359   -0.0442 C   0  0  0  0  0  0  0  0  0  0  0  0
   -3.2218    3.1804   -1.3309 O   0  0  0  0  0  0  0  0  0  0  0  0
   -4.8444    3.9978    0.2426 C   0  0  0  0  0  0  0  0  0  0  0  0
   -5.3478    4.0721    1.5285 C   0  0  0  0  0  0  0  0  0  0  0  0
   -4.7135    3.3820    2.5294 C   0  0  0  0  0  0  0  0  0  0  0  0
   -3.5739    2.6151    2.2449 C   0  0  0  0  0  0  0  0  0  0  0  0
   -3.0326    1.9982    3.3175 F   0  0  0  0  0  0  0  0  0  0  0  0
   -3.1020   -3.1430    3.2044 H   0  0  0  0  0  0  0  0  0  0  0  0
   -1.4464   -2.6037    2.8681 H   0  0  0  0  0  0  0  0  0  0  0  0
   -2.8756   -1.4762    2.6323 H   0  0  0  0  0  0  0  0  0  0  0  0
   -3.4186   -3.8610    1.2343 H   0  0  0  0  0  0  0  0  0  0  0  0
   -0.4170   -3.7910    0.9826 H   0  0  0  0  0  0  0  0  0  0  0  0
   -1.6061   -4.3370   -0.3506 H   0  0  0  0  0  0  0  0  0  0  0  0
   -1.6954   -4.9767    1.2716 H   0  0  0  0  0  0  0  0  0  0  0  0
   -6.1920   -1.8265   -1.2401 H   0  0  0  0  0  0  0  0  0  0  0  0
   -4.9568   -0.9038   -3.1565 H   0  0  0  0  0  0  0  0  0  0  0  0
   -1.2753   -0.7975   -3.3345 H   0  0  0  0  0  0  0  0  0  0  0  0
   -2.4239    0.5295   -3.2240 H   0  0  0  0  0  0  0  0  0  0  0  0
   -2.7798   -0.9575   -4.2789 H   0  0  0  0  0  0  0  0  0  0  0  0
    2.4717    0.1330    1.9423 H   0  0  0  0  0  0  0  0  0  0  0  0
    3.5622    1.4383    1.2814 H   0  0  0  0  0  0  0  0  0  0  0  0
    4.8633   -0.3390    2.3232 H   0  0  0  0  0  0  0  0  0  0  0  0
    4.2153   -1.5019    1.0194 H   0  0  0  0  0  0  0  0  0  0  0  0
    5.6382    0.8030   -1.6600 H   0  0  0  0  0  0  0  0  0  0  0  0
    5.0024    1.9929   -0.4375 H   0  0  0  0  0  0  0  0  0  0  0  0
    3.6169   -0.0982   -2.0677 H   0  0  0  0  0  0  0  0  0  0  0  0
    3.0432    2.7273   -1.0330 H   0  0  0  0  0  0  0  0  0  0  0  0
    2.0184    1.8365   -2.2222 H   0  0  0  0  0  0  0  0  0  0  0  0
    3.7303    2.2463   -2.6131 H   0  0  0  0  0  0  0  0  0  0  0  0
    8.7100   -1.0963    0.9211 H   0  0  0  0  0  0  0  0  0  0  0  0
    6.1741   -2.1976    2.3095 H   0  0  0  0  0  0  0  0  0  0  0  0
    7.9414   -2.6050    2.4860 H   0  0  0  0  0  0  0  0  0  0  0  0
    1.4420    2.0066    0.7485 H   0  0  0  0  0  0  0  0  0  0  0  0
   -3.6762    3.6774   -2.0718 H   0  0  0  0  0  0  0  0  0  0  0  0
   -5.3560    4.5560   -0.5283 H   0  0  0  0  0  0  0  0  0  0  0  0
   -6.2452    4.6610    1.7379 H   0  0  0  0  0  0  0  0  0  0  0  0
   -5.1079    3.4624    3.5241 H   0  0  0  0  0  0  0  0  0  0  0  0
  1  2  1  0
  2  3  1  0
  2  4  1  0
  4  5  2  0
  5  6  1  0
  6  7  2  0
  7  8  1  0
  8  9  1  0
  8 10  2  0
  4 10  1  0
 10 11  1  0
 11 12  1  0
 12 13  2  0
 12 14  1  0
 14 15  2  0
 15 16  1  0
 16 17  1  0
 17 18  1  0
 18 19  1  0
 19 20  1  0
 20 21  1  0
 16 21  1  0
 21 22  1  0
 19 23  1  0
 23 24  2  0
 23 25  1  0
 25 26  2  3
 15 27  1  0
 27 28  2  0
 28 29  1  0
 29 30  1  0
 29 31  2  0
 31 32  1  0
 32 33  2  0
 11 33  1  0
 27 33  1  0
 31 34  1  0
 34 35  2  0
 35 36  1  0
 35 37  1  0
 37 38  2  0
 38 39  1  0
 39 40  2  0
 34 40  1  0
 40 41  1  0
  1 42  1  0
  1 43  1  0
  1 44  1  0
  2 45  1  0
  3 46  1  0
  3 47  1  0
  3 48  1  0
  6 49  1  0
  7 50  1  0
  9 51  1  0
  9 52  1  0
  9 53  1  0
 17 54  1  0
 17 55  1  0
 18 56  1  0
 18 57  1  0
 20 58  1  0
 20 59  1  0
 21 60  1  6
 22 61  1  0
 22 62  1  0
 22 63  1  0
 25 64  1  0
 26 65  1  0
 26 66  1  0
 28 67  1  0
 36 68  1  0
 37 69  1  0
 38 70  1  0
 39 71  1  0
M  END

