404771345
     RDKit          3D

 30 32  0  0  0  0  0  0  0  0999 V2000
   -3.6790    1.0950   -0.4870 C   0  0  0  0  0  0  0  0  0  0  0  0
   -0.6666   -2.4128    0.2864 C   0  0  0  0  0  0  0  0  0  0  0  0
   -3.8732   -0.2590    0.1714 C   0  0  0  0  0  0  0  0  0  0  0  0
   -2.0256   -2.1354    0.2954 C   0  0  0  0  0  0  0  0  0  0  0  0
   -2.2952    1.4708   -0.0142 C   0  0  0  0  0  0  0  0  0  0  0  0
    0.2607   -1.4016    0.1738 C   0  0  0  0  0  0  0  0  0  0  0  0
    4.1422   -0.1625   -0.7394 C   0  0  0  0  0  0  0  0  0  0  0  0
    4.3465    0.3849    0.6549 C   0  0  0  0  0  0  0  0  0  0  0  0
   -2.5012   -0.8478    0.1929 C   0  0  0  0  0  0  0  0  0  0  0  0
   -1.5735    0.1637    0.0804 C   0  0  0  0  0  0  0  0  0  0  0  0
   -0.2036   -0.1128    0.0710 C   0  0  0  0  0  0  0  0  0  0  0  0
    2.1424    0.6778   -0.0572 C   0  0  0  0  0  0  0  0  0  0  0  0
    2.7366   -0.0547   -0.9385 N   0  0  0  0  0  0  0  0  0  0  0  0
    3.1308    1.1474    0.8498 N   0  0  0  0  0  0  0  0  0  0  0  0
    0.7481    0.9339   -0.0453 N   0  0  0  0  0  0  0  0  0  0  0  0
   -3.7426    1.0240   -1.5881 H   0  0  0  0  0  0  0  0  0  0  0  0
   -4.4595    1.7862   -0.0847 H   0  0  0  0  0  0  0  0  0  0  0  0
   -0.3324   -3.4290    0.3683 H   0  0  0  0  0  0  0  0  0  0  0  0
   -4.5726   -0.8297   -0.4501 H   0  0  0  0  0  0  0  0  0  0  0  0
   -4.2686   -0.1637    1.1942 H   0  0  0  0  0  0  0  0  0  0  0  0
   -2.7597   -2.9450    0.3853 H   0  0  0  0  0  0  0  0  0  0  0  0
   -1.7872    2.1183   -0.7530 H   0  0  0  0  0  0  0  0  0  0  0  0
   -2.4064    1.9431    0.9745 H   0  0  0  0  0  0  0  0  0  0  0  0
    1.3392   -1.6321    0.1676 H   0  0  0  0  0  0  0  0  0  0  0  0
    4.5125   -1.2094   -0.7736 H   0  0  0  0  0  0  0  0  0  0  0  0
    4.7345    0.4881   -1.4300 H   0  0  0  0  0  0  0  0  0  0  0  0
    4.3940   -0.4837    1.3550 H   0  0  0  0  0  0  0  0  0  0  0  0
    5.2521    1.0204    0.7229 H   0  0  0  0  0  0  0  0  0  0  0  0
    3.0040    1.9122    1.5403 H   0  0  0  0  0  0  0  0  0  0  0  0
    0.4034    1.9134   -0.1236 H   0  0  0  0  0  0  0  0  0  0  0  0
  1  3  1  0
  2  4  1  0
  1  5  1  0
  2  6  2  0
  7  8  1  0
  3  9  1  0
  4  9  2  0
  5 10  1  0
  9 10  1  0
  6 11  1  0
 10 11  2  0
  7 13  1  0
 12 13  2  0
  8 14  1  0
 12 14  1  0
 11 15  1  0
 12 15  1  0
  1 16  1  0
  1 17  1  0
  2 18  1  0
  3 19  1  0
  3 20  1  0
  4 21  1  0
  5 22  1  0
  5 23  1  0
  6 24  1  0
  7 25  1  0
  7 26  1  0
  8 27  1  0
  8 28  1  0
 14 29  1  0
 15 30  1  0
M  END

