404770852
     RDKit          3D

 27 27  0  0  0  0  0  0  0  0999 V2000
   -1.5361   -0.6704   -0.9507 C   0  0  0  0  0  0  0  0  0  0  0  0
   -0.1024   -0.6020   -1.0013 C   0  0  0  0  0  0  0  0  0  0  0  0
    0.5950   -0.1364    0.0066 C   0  0  0  0  0  0  0  0  0  0  0  0
   -2.1379   -1.1392   -1.9807 O   0  0  0  0  0  0  0  0  0  0  0  0
   -2.2912   -0.2571    0.1487 N   0  0  0  0  0  0  0  0  0  0  0  0
    2.0332   -0.0641   -0.0350 C   0  0  0  0  0  0  0  0  0  0  0  0
   -4.0576    1.8320   -0.7745 O   0  0  0  0  0  0  0  0  0  0  0  0
   -3.7455   -0.3286    0.1949 C   0  0  0  0  0  0  0  0  0  0  0  0
   -4.4010    0.4718   -0.8763 C   0  0  0  0  0  0  0  0  0  0  0  0
    2.7031    0.4473    1.0865 C   0  0  0  0  0  0  0  0  0  0  0  0
    2.7961   -0.4626   -1.1006 C   0  0  0  0  0  0  0  0  0  0  0  0
    4.1884   -0.3806   -1.1123 C   0  0  0  0  0  0  0  0  0  0  0  0
    4.0748    0.5297    1.0787 C   0  0  0  0  0  0  0  0  0  0  0  0
    4.8137    0.1247    0.0013 C   0  0  0  0  0  0  0  0  0  0  0  0
    0.3796   -0.9575   -1.9221 H   0  0  0  0  0  0  0  0  0  0  0  0
    0.0794    0.2117    0.9150 H   0  0  0  0  0  0  0  0  0  0  0  0
   -1.8539    0.1304    1.0086 H   0  0  0  0  0  0  0  0  0  0  0  0
   -3.3372    1.9035   -0.1005 H   0  0  0  0  0  0  0  0  0  0  0  0
   -3.9995   -1.4051    0.0097 H   0  0  0  0  0  0  0  0  0  0  0  0
   -4.1687   -0.0782    1.1715 H   0  0  0  0  0  0  0  0  0  0  0  0
   -4.2279    0.0818   -1.8990 H   0  0  0  0  0  0  0  0  0  0  0  0
   -5.4968    0.4301   -0.7050 H   0  0  0  0  0  0  0  0  0  0  0  0
    2.1315    0.7739    1.9520 H   0  0  0  0  0  0  0  0  0  0  0  0
    2.3258   -0.8692   -2.0017 H   0  0  0  0  0  0  0  0  0  0  0  0
    4.7598   -0.7100   -1.9845 H   0  0  0  0  0  0  0  0  0  0  0  0
    4.5849    0.9329    1.9658 H   0  0  0  0  0  0  0  0  0  0  0  0
    5.8902    0.1910   -0.0008 H   0  0  0  0  0  0  0  0  0  0  0  0
  1  2  1  0
  2  3  2  0
  1  4  2  0
  1  5  1  0
  3  6  1  0
  7  9  1  0
  5  8  1  0
  8  9  1  0
  6 10  2  0
  6 11  1  0
 11 12  2  0
 10 13  1  0
 12 14  1  0
 13 14  2  0
  2 15  1  0
  3 16  1  0
  5 17  1  0
  7 18  1  0
  8 19  1  0
  8 20  1  0
  9 21  1  0
  9 22  1  0
 10 23  1  0
 11 24  1  0
 12 25  1  0
 13 26  1  0
 14 27  1  0
M  END

