404771610
     RDKit          3D

 84 87  0  0  1  0  0  0  0  0999 V2000
    6.9310   -2.2264   -0.6540 C   0  0  0  0  0  0  0  0  0  0  0  0
    8.4798   -0.2374   -0.0563 C   0  0  0  0  0  0  0  0  0  0  0  0
   -6.1221    1.4664    0.1180 C   0  0  0  0  0  0  0  0  0  0  0  0
   -5.7895    0.0171   -1.7886 C   0  0  0  0  0  0  0  0  0  0  0  0
   -2.8162   -0.9099   -1.9220 C   0  0  0  0  0  0  0  0  0  0  0  0
   -0.1133    1.0313    2.3539 C   0  0  0  0  0  0  0  0  0  0  0  0
   -0.8622    1.3054   -1.3231 C   0  0  0  0  0  0  0  0  0  0  0  0
    4.7861    0.3342    1.3374 C   0  0  0  0  0  0  0  0  0  0  0  0
    5.0018   -0.2983   -1.6534 C   0  0  0  0  0  0  0  0  0  0  0  0
    6.2997    0.0782   -1.0782 C   0  0  0  0  0  0  0  0  0  0  0  0
    0.5208   -1.3511    0.9200 C   0  0  0  0  0  0  0  0  0  0  0  0
   -0.8033   -1.6249    0.2913 C   0  0  0  0  0  0  0  0  0  0  0  0
    2.2113    1.8123    1.3441 C   0  0  0  0  0  0  0  0  0  0  0  0
   -3.4471    1.7841   -0.2383 C   0  0  0  0  0  0  0  0  0  0  0  0
   -4.8008   -1.7324    1.0543 C   0  0  0  0  0  0  0  0  0  0  0  0
    3.8014    0.2874   -0.9573 C   0  0  0  0  0  0  0  0  0  0  0  0
   -3.7278   -1.9842    0.0231 C   0  0  0  0  0  0  0  0  0  0  0  0
    0.9538    2.2169    0.5378 C   0  0  0  0  0  0  0  0  0  0  0  0
   -2.1586    1.9180    0.5631 C   0  0  0  0  0  0  0  0  0  0  0  0
    7.1978   -0.7552   -0.6164 C   0  0  0  0  0  0  0  0  0  0  0  0
    1.1051   -0.0646    0.4616 C   0  0  0  0  0  0  0  0  0  0  0  0
    2.3653    0.3443    1.1137 C   0  0  1  0  0  0  0  0  0  0  0  0
   -3.9719    0.3872   -0.0646 C   0  0  1  0  0  0  0  0  0  0  0  0
   -1.7442   -0.4502    0.3054 C   0  0  2  0  0  0  0  0  0  0  0  0
   -5.9403   -0.9252    0.4739 C   0  0  1  0  0  0  0  0  0  0  0  0
   -5.3985    0.2032   -0.3787 C   0  0  0  0  0  0  0  0  0  0  0  0
   -3.0345   -0.7193   -0.4565 C   0  0  2  0  0  0  0  0  0  0  0  0
    0.0909    1.0175    0.8856 C   0  0  1  0  0  0  0  0  0  0  0  0
   -1.1504    0.8650    0.0583 C   0  0  1  0  0  0  0  0  0  0  0  0
    3.6202   -0.0837    0.4596 C   0  0  0  0  0  0  0  0  0  0  0  0
   -6.7065   -1.7845   -0.3425 O   0  0  0  0  0  0  0  0  0  0  0  0
    3.6168   -1.5015    0.5126 O   0  0  0  0  0  0  0  0  0  0  0  0
    6.1302   -2.4879    0.0656 H   0  0  0  0  0  0  0  0  0  0  0  0
    6.5942   -2.4949   -1.6582 H   0  0  0  0  0  0  0  0  0  0  0  0
    7.8241   -2.8026   -0.3241 H   0  0  0  0  0  0  0  0  0  0  0  0
    8.9289   -1.0406    0.5454 H   0  0  0  0  0  0  0  0  0  0  0  0
    9.1171    0.0487   -0.9219 H   0  0  0  0  0  0  0  0  0  0  0  0
    8.2249    0.6599    0.5647 H   0  0  0  0  0  0  0  0  0  0  0  0
   -7.2167    1.1972    0.0441 H   0  0  0  0  0  0  0  0  0  0  0  0
   -5.8908    1.6964    1.1555 H   0  0  0  0  0  0  0  0  0  0  0  0
   -5.9917    2.3076   -0.5927 H   0  0  0  0  0  0  0  0  0  0  0  0
   -5.4638    0.8537   -2.4413 H   0  0  0  0  0  0  0  0  0  0  0  0
   -5.5760   -0.9833   -2.2225 H   0  0  0  0  0  0  0  0  0  0  0  0
   -6.9220    0.0828   -1.8206 H   0  0  0  0  0  0  0  0  0  0  0  0
   -3.3324   -0.2277   -2.5858 H   0  0  0  0  0  0  0  0  0  0  0  0
   -1.6962   -0.9624   -2.0795 H   0  0  0  0  0  0  0  0  0  0  0  0
   -3.1320   -1.9376   -2.2944 H   0  0  0  0  0  0  0  0  0  0  0  0
   -1.0922    0.6745    2.7210 H   0  0  0  0  0  0  0  0  0  0  0  0
    0.6417    0.4944    2.9552 H   0  0  0  0  0  0  0  0  0  0  0  0
   -0.0595    2.0987    2.7291 H   0  0  0  0  0  0  0  0  0  0  0  0
   -1.7223    1.4176   -2.0099 H   0  0  0  0  0  0  0  0  0  0  0  0
   -0.0798    0.7990   -1.8704 H   0  0  0  0  0  0  0  0  0  0  0  0
   -0.5347    2.3920   -1.2320 H   0  0  0  0  0  0  0  0  0  0  0  0
    5.4396   -0.5198    1.6266 H   0  0  0  0  0  0  0  0  0  0  0  0
    4.3344    0.6465    2.3288 H   0  0  0  0  0  0  0  0  0  0  0  0
    5.3130    1.2238    0.9856 H   0  0  0  0  0  0  0  0  0  0  0  0
    4.9990    0.1371   -2.6991 H   0  0  0  0  0  0  0  0  0  0  0  0
    4.8983   -1.3897   -1.8261 H   0  0  0  0  0  0  0  0  0  0  0  0
    6.5176    1.1654   -1.0500 H   0  0  0  0  0  0  0  0  0  0  0  0
    1.2106   -2.1788    0.6306 H   0  0  0  0  0  0  0  0  0  0  0  0
    0.5043   -1.3534    2.0331 H   0  0  0  0  0  0  0  0  0  0  0  0
   -0.6676   -2.0731   -0.7129 H   0  0  0  0  0  0  0  0  0  0  0  0
   -1.1959   -2.4680    0.9402 H   0  0  0  0  0  0  0  0  0  0  0  0
    1.9498    2.0096    2.4027 H   0  0  0  0  0  0  0  0  0  0  0  0
    3.0668    2.4217    1.0862 H   0  0  0  0  0  0  0  0  0  0  0  0
   -3.4266    2.1789   -1.2364 H   0  0  0  0  0  0  0  0  0  0  0  0
   -4.1793    2.4372    0.3320 H   0  0  0  0  0  0  0  0  0  0  0  0
   -4.4461   -1.4037    2.0271 H   0  0  0  0  0  0  0  0  0  0  0  0
   -5.2458   -2.7592    1.2403 H   0  0  0  0  0  0  0  0  0  0  0  0
    2.9253   -0.0323   -1.5896 H   0  0  0  0  0  0  0  0  0  0  0  0
    3.8600    1.3812   -1.1480 H   0  0  0  0  0  0  0  0  0  0  0  0
   -4.2956   -2.4612   -0.8384 H   0  0  0  0  0  0  0  0  0  0  0  0
   -3.0906   -2.7717    0.3865 H   0  0  0  0  0  0  0  0  0  0  0  0
    0.5512    3.1717    0.8786 H   0  0  0  0  0  0  0  0  0  0  0  0
    1.3320    2.2059   -0.5041 H   0  0  0  0  0  0  0  0  0  0  0  0
   -1.7665    2.9286    0.3959 H   0  0  0  0  0  0  0  0  0  0  0  0
   -2.4378    1.7297    1.6186 H   0  0  0  0  0  0  0  0  0  0  0  0
    1.2250   -0.1013   -0.6084 H   0  0  0  0  0  0  0  0  0  0  0  0
    2.3671   -0.1706    2.1313 H   0  0  0  0  0  0  0  0  0  0  0  0
   -3.9421    0.3146    1.0790 H   0  0  0  0  0  0  0  0  0  0  0  0
   -2.1233   -0.4335    1.3794 H   0  0  0  0  0  0  0  0  0  0  0  0
   -6.6004   -0.5997    1.2779 H   0  0  0  0  0  0  0  0  0  0  0  0
   -7.6520   -1.5505   -0.3258 H   0  0  0  0  0  0  0  0  0  0  0  0
    3.4296   -1.8907   -0.3782 H   0  0  0  0  0  0  0  0  0  0  0  0
  9 10  1  0
 11 12  1  0
  9 16  1  0
 15 17  1  0
 13 18  1  0
 14 19  1  0
  1 20  1  0
  2 20  1  0
 10 20  2  3
 11 21  1  0
 13 22  1  0
 21 22  1  0
 14 23  1  0
 12 24  1  0
 15 25  1  0
  3 26  1  0
  4 26  1  0
 23 26  1  0
 25 26  1  0
 27  5  1  6
 17 27  1  0
 23 27  1  0
 24 27  1  0
 28  6  1  1
 18 28  1  0
 21 28  1  0
 29  7  1  6
 19 29  1  0
 24 29  1  0
 28 29  1  0
  8 30  1  0
 16 30  1  0
 22 30  1  0
 25 31  1  0
 30 32  1  0
  1 33  1  0
  1 34  1  0
  1 35  1  0
  2 36  1  0
  2 37  1  0
  2 38  1  0
  3 39  1  0
  3 40  1  0
  3 41  1  0
  4 42  1  0
  4 43  1  0
  4 44  1  0
  5 45  1  0
  5 46  1  0
  5 47  1  0
  6 48  1  0
  6 49  1  0
  6 50  1  0
  7 51  1  0
  7 52  1  0
  7 53  1  0
  8 54  1  0
  8 55  1  0
  8 56  1  0
  9 57  1  0
  9 58  1  0
 10 59  1  0
 11 60  1  0
 11 61  1  0
 12 62  1  0
 12 63  1  0
 13 64  1  0
 13 65  1  0
 14 66  1  0
 14 67  1  0
 15 68  1  0
 15 69  1  0
 16 70  1  0
 16 71  1  0
 17 72  1  0
 17 73  1  0
 18 74  1  0
 18 75  1  0
 19 76  1  0
 19 77  1  0
 21 78  1  0
 22 79  1  1
 23 80  1  1
 24 81  1  1
 25 82  1  1
 31 83  1  0
 32 84  1  0
M  END

