404770279
     RDKit          3D

 68 74  0  0  0  0  0  0  0  0999 V2000
   -4.8178   -1.6860   -2.7697 C   0  0  0  0  0  0  0  0  0  0  0  0
   -4.8440   -0.9224   -1.5598 N   0  0  0  0  0  0  0  0  0  0  0  0
   -4.1233    0.2112   -1.3474 C   0  0  0  0  0  0  0  0  0  0  0  0
   -4.3922    0.6643   -0.1061 C   0  0  0  0  0  0  0  0  0  0  0  0
   -5.3179   -0.2249    0.4765 C   0  0  0  0  0  0  0  0  0  0  0  0
   -5.9229   -0.2490    1.7110 C   0  0  0  0  0  0  0  0  0  0  0  0
   -6.7984   -1.2688    1.9995 C   0  0  0  0  0  0  0  0  0  0  0  0
   -7.0604   -2.2587    1.0459 C   0  0  0  0  0  0  0  0  0  0  0  0
   -6.4525   -2.2308   -0.1856 C   0  0  0  0  0  0  0  0  0  0  0  0
   -5.5687   -1.2002   -0.4743 C   0  0  0  0  0  0  0  0  0  0  0  0
   -3.8891    1.8166    0.6592 C   0  0  0  0  0  0  0  0  0  0  0  0
   -2.6778    2.1580    0.9457 C   0  0  0  0  0  0  0  0  0  0  0  0
   -2.7079    3.4120    1.7477 C   0  0  0  0  0  0  0  0  0  0  0  0
   -1.6622    3.9948    2.1817 O   0  0  0  0  0  0  0  0  0  0  0  0
   -4.0500    3.7997    1.9182 N   0  0  0  0  0  0  0  0  0  0  0  0
   -4.8219    2.8228    1.2478 C   0  0  0  0  0  0  0  0  0  0  0  0
   -6.0601    2.8146    1.1676 O   0  0  0  0  0  0  0  0  0  0  0  0
   -1.4102    1.4938    0.5530 C   0  0  0  0  0  0  0  0  0  0  0  0
   -0.5672    0.7948    1.4011 C   0  0  0  0  0  0  0  0  0  0  0  0
    0.5327    0.3632    0.7724 N   0  0  0  0  0  0  0  0  0  0  0  0
    0.4197    0.7781   -0.5032 C   0  0  0  0  0  0  0  0  0  0  0  0
    1.2665    0.6311   -1.5866 C   0  0  0  0  0  0  0  0  0  0  0  0
    0.9189    1.1806   -2.8028 C   0  0  0  0  0  0  0  0  0  0  0  0
   -0.2689    1.8842   -2.9701 C   0  0  0  0  0  0  0  0  0  0  0  0
   -1.1084    2.0283   -1.8930 C   0  0  0  0  0  0  0  0  0  0  0  0
   -0.7844    1.4870   -0.6665 C   0  0  0  0  0  0  0  0  0  0  0  0
    1.6445   -0.3880    1.3205 C   0  0  0  0  0  0  0  0  0  0  0  0
    1.9364   -1.6717    0.6606 C   0  0  0  0  0  0  0  0  0  0  0  0
    3.3928   -1.9220    0.4868 C   0  0  0  0  0  0  0  0  0  0  0  0
    4.2631   -1.4015    1.4377 N   0  0  0  0  0  0  0  0  0  0  0  0
    3.8487   -0.3602    2.2786 C   0  0  0  0  0  0  0  0  0  0  0  0
    2.8798    0.5143    1.4656 C   0  0  0  0  0  0  0  0  0  0  0  0
    5.6375   -1.6839    1.3350 C   0  0  0  0  0  0  0  0  0  0  0  0
    6.2813   -1.2540    0.0914 C   0  0  0  0  0  0  0  0  0  0  0  0
    6.4503    0.0765   -0.2068 C   0  0  0  0  0  0  0  0  0  0  0  0
    7.0744    0.4700   -1.4020 C   0  0  0  0  0  0  0  0  0  0  0  0
    7.5078   -0.5041   -2.2576 C   0  0  0  0  0  0  0  0  0  0  0  0
    7.3318   -1.8109   -1.9450 C   0  0  0  0  0  0  0  0  0  0  0  0
    6.7282   -2.1595   -0.7891 N   0  0  0  0  0  0  0  0  0  0  0  0
   -3.8202   -2.1735   -2.9492 H   0  0  0  0  0  0  0  0  0  0  0  0
   -5.5388   -2.5376   -2.7232 H   0  0  0  0  0  0  0  0  0  0  0  0
   -5.0866   -1.0540   -3.6534 H   0  0  0  0  0  0  0  0  0  0  0  0
   -3.4683    0.6522   -2.0700 H   0  0  0  0  0  0  0  0  0  0  0  0
   -5.7244    0.4900    2.4458 H   0  0  0  0  0  0  0  0  0  0  0  0
   -7.2629   -1.2697    2.9737 H   0  0  0  0  0  0  0  0  0  0  0  0
   -7.7564   -3.0329    1.3280 H   0  0  0  0  0  0  0  0  0  0  0  0
   -6.6928   -3.0222   -0.8821 H   0  0  0  0  0  0  0  0  0  0  0  0
   -4.4190    4.6398    2.4344 H   0  0  0  0  0  0  0  0  0  0  0  0
   -0.8118    0.6372    2.4536 H   0  0  0  0  0  0  0  0  0  0  0  0
    2.1885    0.0869   -1.4642 H   0  0  0  0  0  0  0  0  0  0  0  0
    1.6317    1.0267   -3.6200 H   0  0  0  0  0  0  0  0  0  0  0  0
   -0.4787    2.2906   -3.9587 H   0  0  0  0  0  0  0  0  0  0  0  0
   -2.0361    2.5721   -1.9955 H   0  0  0  0  0  0  0  0  0  0  0  0
    1.3765   -0.6079    2.3875 H   0  0  0  0  0  0  0  0  0  0  0  0
    1.3961   -1.8439   -0.2943 H   0  0  0  0  0  0  0  0  0  0  0  0
    1.5544   -2.5060    1.3178 H   0  0  0  0  0  0  0  0  0  0  0  0
    3.6922   -1.5025   -0.5209 H   0  0  0  0  0  0  0  0  0  0  0  0
    3.5954   -3.0200    0.3560 H   0  0  0  0  0  0  0  0  0  0  0  0
    4.7036    0.2666    2.5843 H   0  0  0  0  0  0  0  0  0  0  0  0
    3.2690   -0.7437    3.1323 H   0  0  0  0  0  0  0  0  0  0  0  0
    2.6093    1.4217    2.0054 H   0  0  0  0  0  0  0  0  0  0  0  0
    3.3757    0.7057    0.5159 H   0  0  0  0  0  0  0  0  0  0  0  0
    6.1422   -1.2424    2.2467 H   0  0  0  0  0  0  0  0  0  0  0  0
    5.7686   -2.7958    1.4969 H   0  0  0  0  0  0  0  0  0  0  0  0
    6.1193    0.8585    0.4469 H   0  0  0  0  0  0  0  0  0  0  0  0
    7.2198    1.5085   -1.6616 H   0  0  0  0  0  0  0  0  0  0  0  0
    7.9923   -0.2405   -3.1882 H   0  0  0  0  0  0  0  0  0  0  0  0
    7.6535   -2.6339   -2.5817 H   0  0  0  0  0  0  0  0  0  0  0  0
  1  2  1  0
  2  3  1  0
  3  4  2  0
  4  5  1  0
  5  6  2  0
  6  7  1  0
  7  8  2  0
  8  9  1  0
  9 10  2  0
  5 10  1  0
  2 10  1  0
  4 11  1  0
 11 12  2  0
 12 13  1  0
 13 14  2  0
 13 15  1  0
 15 16  1  0
 11 16  1  0
 16 17  2  0
 12 18  1  0
 18 19  2  0
 19 20  1  0
 20 21  1  0
 21 22  2  0
 22 23  1  0
 23 24  2  0
 24 25  1  0
 25 26  2  0
 21 26  1  0
 18 26  1  0
 20 27  1  0
 27 28  1  0
 28 29  1  0
 29 30  1  0
 30 31  1  0
 31 32  1  0
 27 32  1  0
 30 33  1  0
 33 34  1  0
 34 35  2  0
 35 36  1  0
 36 37  2  0
 37 38  1  0
 38 39  2  0
 34 39  1  0
  1 40  1  0
  1 41  1  0
  1 42  1  0
  3 43  1  0
  6 44  1  0
  7 45  1  0
  8 46  1  0
  9 47  1  0
 15 48  1  0
 19 49  1  0
 22 50  1  0
 23 51  1  0
 24 52  1  0
 25 53  1  0
 27 54  1  0
 28 55  1  0
 28 56  1  0
 29 57  1  0
 29 58  1  0
 31 59  1  0
 31 60  1  0
 32 61  1  0
 32 62  1  0
 33 63  1  0
 33 64  1  0
 35 65  1  0
 36 66  1  0
 37 67  1  0
 38 68  1  0
M  END

