404772379
     RDKit          3D

 62 66  0  0  1  0  0  0  0  0999 V2000
   -4.6095    0.8777    1.6725 C   0  0  0  0  0  0  0  0  0  0  0  0
   -4.0154    1.1263    0.3379 C   0  0  0  0  0  0  0  0  0  0  0  0
   -3.1653    0.2549   -0.1440 C   0  0  0  0  0  0  0  0  0  0  0  0
   -2.5500    0.4790   -1.4911 C   0  0  1  0  0  0  0  0  0  0  0  0
   -3.0071    1.6344   -2.1258 O   0  0  0  0  0  0  0  0  0  0  0  0
   -3.8860    2.5443   -1.6297 C   0  0  0  0  0  0  0  0  0  0  0  0
   -4.2444    3.6665   -2.3435 C   0  0  0  0  0  0  0  0  0  0  0  0
   -5.1408    4.5616   -1.7967 C   0  0  0  0  0  0  0  0  0  0  0  0
   -5.6867    4.3673   -0.5610 C   0  0  0  0  0  0  0  0  0  0  0  0
   -6.5870    5.3079   -0.0625 O   0  0  0  0  0  0  0  0  0  0  0  0
   -5.3256    3.2461    0.1466 C   0  0  0  0  0  0  0  0  0  0  0  0
   -4.4353    2.3428   -0.3806 C   0  0  0  0  0  0  0  0  0  0  0  0
   -1.0527    0.5647   -1.3072 C   0  0  0  0  0  0  0  0  0  0  0  0
   -0.4766    1.7036   -0.7887 C   0  0  0  0  0  0  0  0  0  0  0  0
    0.8807    1.7934   -0.6291 C   0  0  0  0  0  0  0  0  0  0  0  0
    1.7599    0.7495   -0.9769 C   0  0  0  0  0  0  0  0  0  0  0  0
    3.0665    1.0033   -0.7564 O   0  0  0  0  0  0  0  0  0  0  0  0
    4.2250    0.2727   -0.9376 C   0  0  0  0  0  0  0  0  0  0  0  0
    4.3683   -0.9675   -0.1572 C   0  0  0  0  0  0  0  0  0  0  0  0
    5.5530   -1.7217   -0.3420 N   0  0  0  0  0  0  0  0  0  0  0  0
    6.8059   -1.2667    0.0826 C   0  0  0  0  0  0  0  0  0  0  0  0
    6.5511   -1.8534    1.4297 C   0  0  0  0  0  0  0  0  0  0  0  0
    7.7422   -2.5056    2.0929 C   0  0  0  0  0  0  0  0  0  0  0  0
    8.7063   -1.4977    2.2252 F   0  0  0  0  0  0  0  0  0  0  0  0
    5.6613   -2.7864    0.6360 C   0  0  0  0  0  0  0  0  0  0  0  0
    1.1793   -0.3675   -1.4872 C   0  0  0  0  0  0  0  0  0  0  0  0
   -0.2069   -0.4596   -1.6498 C   0  0  0  0  0  0  0  0  0  0  0  0
   -2.7463   -0.9354    0.5785 C   0  0  0  0  0  0  0  0  0  0  0  0
   -2.3600   -0.9979    1.8781 C   0  0  0  0  0  0  0  0  0  0  0  0
   -1.9950   -2.1975    2.5013 C   0  0  0  0  0  0  0  0  0  0  0  0
   -1.6125   -2.1711    3.8384 O   0  0  0  0  0  0  0  0  0  0  0  0
   -2.0182   -3.3768    1.7930 C   0  0  0  0  0  0  0  0  0  0  0  0
   -2.4108   -3.3061    0.4735 C   0  0  0  0  0  0  0  0  0  0  0  0
   -2.7721   -2.1307   -0.1485 C   0  0  0  0  0  0  0  0  0  0  0  0
   -4.6469   -0.1944    1.9543 H   0  0  0  0  0  0  0  0  0  0  0  0
   -4.0873    1.5263    2.3994 H   0  0  0  0  0  0  0  0  0  0  0  0
   -5.6932    1.2080    1.7260 H   0  0  0  0  0  0  0  0  0  0  0  0
   -2.7488   -0.3751   -2.1663 H   0  0  0  0  0  0  0  0  0  0  0  0
   -3.8128    3.8182   -3.3185 H   0  0  0  0  0  0  0  0  0  0  0  0
   -5.4380    5.4581   -2.3506 H   0  0  0  0  0  0  0  0  0  0  0  0
   -7.5808    5.2559   -0.2131 H   0  0  0  0  0  0  0  0  0  0  0  0
   -5.7470    3.0896    1.1165 H   0  0  0  0  0  0  0  0  0  0  0  0
   -1.1430    2.5159   -0.5173 H   0  0  0  0  0  0  0  0  0  0  0  0
    1.2620    2.7212   -0.2151 H   0  0  0  0  0  0  0  0  0  0  0  0
    5.0649    0.9975   -0.8169 H   0  0  0  0  0  0  0  0  0  0  0  0
    4.2673    0.0445   -2.0542 H   0  0  0  0  0  0  0  0  0  0  0  0
    4.2750   -0.6644    0.9359 H   0  0  0  0  0  0  0  0  0  0  0  0
    3.5072   -1.6317   -0.3025 H   0  0  0  0  0  0  0  0  0  0  0  0
    7.6280   -1.8531   -0.4219 H   0  0  0  0  0  0  0  0  0  0  0  0
    7.0750   -0.2081    0.0280 H   0  0  0  0  0  0  0  0  0  0  0  0
    5.9235   -1.2410    2.1171 H   0  0  0  0  0  0  0  0  0  0  0  0
    7.4618   -2.7844    3.1288 H   0  0  0  0  0  0  0  0  0  0  0  0
    8.1177   -3.3385    1.4896 H   0  0  0  0  0  0  0  0  0  0  0  0
    4.6930   -3.0397    1.0990 H   0  0  0  0  0  0  0  0  0  0  0  0
    6.1996   -3.6496    0.1758 H   0  0  0  0  0  0  0  0  0  0  0  0
    1.8172   -1.1896   -1.7818 H   0  0  0  0  0  0  0  0  0  0  0  0
   -0.6312   -1.3656   -2.0577 H   0  0  0  0  0  0  0  0  0  0  0  0
   -2.3305   -0.0614    2.4367 H   0  0  0  0  0  0  0  0  0  0  0  0
   -2.3754   -2.2981    4.5151 H   0  0  0  0  0  0  0  0  0  0  0  0
   -1.7395   -4.3333    2.2441 H   0  0  0  0  0  0  0  0  0  0  0  0
   -2.4328   -4.2400   -0.0980 H   0  0  0  0  0  0  0  0  0  0  0  0
   -3.0803   -2.1217   -1.2027 H   0  0  0  0  0  0  0  0  0  0  0  0
  1  2  1  0
  2  3  2  0
  3  4  1  0
  4  5  1  0
  5  6  1  0
  6  7  2  0
  7  8  1  0
  8  9  2  0
  9 10  1  0
  9 11  1  0
 11 12  2  0
  2 12  1  0
  6 12  1  0
  4 13  1  0
 13 14  2  0
 14 15  1  0
 15 16  2  0
 16 17  1  0
 17 18  1  0
 18 19  1  0
 19 20  1  0
 20 21  1  0
 21 22  1  0
 22 23  1  0
 23 24  1  0
 22 25  1  0
 20 25  1  0
 16 26  1  0
 26 27  2  0
 13 27  1  0
  3 28  1  0
 28 29  2  0
 29 30  1  0
 30 31  1  0
 30 32  2  0
 32 33  1  0
 33 34  2  0
 28 34  1  0
  1 35  1  0
  1 36  1  0
  1 37  1  0
  4 38  1  6
  7 39  1  0
  8 40  1  0
 10 41  1  0
 11 42  1  0
 14 43  1  0
 15 44  1  0
 18 45  1  0
 18 46  1  0
 19 47  1  0
 19 48  1  0
 21 49  1  0
 21 50  1  0
 22 51  1  0
 23 52  1  0
 23 53  1  0
 25 54  1  0
 25 55  1  0
 26 56  1  0
 27 57  1  0
 29 58  1  0
 31 59  1  0
 32 60  1  0
 33 61  1  0
 34 62  1  0
M  END

