404770362
     RDKit          3D

 82 85  0  0  1  0  0  0  0  0999 V2000
    2.7219   -4.6905    2.0272 C   0  0  0  0  0  0  0  0  0  0  0  0
    3.7734   -4.3717    0.9820 C   0  0  0  0  0  0  0  0  0  0  0  0
    5.0454   -3.9489    1.6513 C   0  0  0  0  0  0  0  0  0  0  0  0
    3.3011   -3.2772    0.1096 C   0  0  0  0  0  0  0  0  0  0  0  0
    3.0425   -3.5542   -1.1052 O   0  0  0  0  0  0  0  0  0  0  0  0
    3.1291   -1.9650    0.5565 N   0  0  0  0  0  0  0  0  0  0  0  0
    2.6472   -0.9042   -0.3669 C   0  0  2  0  0  0  0  0  0  0  0  0
    3.8678   -0.0443   -0.5765 C   0  0  0  0  0  0  0  0  0  0  0  0
    3.7331    1.1033   -1.4505 C   0  0  0  0  0  0  0  0  0  0  0  0
    4.0844    1.2287   -2.7984 C   0  0  0  0  0  0  0  0  0  0  0  0
    3.7781    2.4556   -3.2515 N   0  0  0  0  0  0  0  0  0  0  0  0
    3.2361    3.1369   -2.2365 C   0  0  0  0  0  0  0  0  0  0  0  0
    3.1980    2.3279   -1.1195 C   0  0  0  0  0  0  0  0  0  0  0  0
    2.6808    2.8640    0.0439 C   0  0  0  0  0  0  0  0  0  0  0  0
    2.2128    4.1627    0.1020 C   0  0  0  0  0  0  0  0  0  0  0  0
    2.2499    4.9618   -1.0049 C   0  0  0  0  0  0  0  0  0  0  0  0
    2.7608    4.4374   -2.1575 C   0  0  0  0  0  0  0  0  0  0  0  0
    1.5275   -0.2587    0.3036 C   0  0  0  0  0  0  0  0  0  0  0  0
    1.5861   -0.1006    1.5618 O   0  0  0  0  0  0  0  0  0  0  0  0
    0.3793    0.1926   -0.4243 N   0  0  0  0  0  0  0  0  0  0  0  0
    0.2455   -0.0374   -1.8233 C   0  0  0  0  0  0  0  0  0  0  0  0
   -0.7455    0.8815   -2.4785 C   0  0  0  0  0  0  0  0  0  0  0  0
   -2.0170    1.0204   -1.7235 C   0  0  0  0  0  0  0  0  0  0  0  0
   -1.9900    0.7073   -0.2718 C   0  0  2  0  0  0  0  0  0  0  0  0
   -0.6235    0.9184    0.2991 C   0  0  0  0  0  0  0  0  0  0  0  0
   -2.4383   -0.7032    0.0393 C   0  0  0  0  0  0  0  0  0  0  0  0
   -2.4146   -1.0273    1.4874 C   0  0  0  0  0  0  0  0  0  0  0  0
   -1.3367   -1.6250    2.0480 C   0  0  0  0  0  0  0  0  0  0  0  0
   -1.3386   -1.8954    3.4069 C   0  0  0  0  0  0  0  0  0  0  0  0
   -2.4197   -1.5706    4.2178 C   0  0  0  0  0  0  0  0  0  0  0  0
   -3.5045   -0.9653    3.6303 C   0  0  0  0  0  0  0  0  0  0  0  0
   -3.4922   -0.7010    2.2804 C   0  0  0  0  0  0  0  0  0  0  0  0
   -2.9210    1.6900    0.4262 C   0  0  0  0  0  0  0  0  0  0  0  0
   -2.4746    2.3664    1.3850 O   0  0  0  0  0  0  0  0  0  0  0  0
   -4.2560    1.8677    0.0400 N   0  0  0  0  0  0  0  0  0  0  0  0
   -5.0973    2.8118    0.7411 C   0  0  0  0  0  0  0  0  0  0  0  0
   -4.7931    1.1458   -1.0190 N   0  0  0  0  0  0  0  0  0  0  0  0
   -6.0219    0.4438   -0.5991 C   0  0  0  0  0  0  0  0  0  0  0  0
   -5.2391    2.0248   -2.0954 C   0  0  0  0  0  0  0  0  0  0  0  0
    3.9891   -5.5861    0.1966 N   0  0  0  0  0  0  0  0  0  0  0  0
    2.8744   -4.0864    2.9401 H   0  0  0  0  0  0  0  0  0  0  0  0
    2.8225   -5.7717    2.2730 H   0  0  0  0  0  0  0  0  0  0  0  0
    1.7110   -4.5141    1.6198 H   0  0  0  0  0  0  0  0  0  0  0  0
    5.6354   -3.2763    0.9785 H   0  0  0  0  0  0  0  0  0  0  0  0
    5.6097   -4.8417    1.9411 H   0  0  0  0  0  0  0  0  0  0  0  0
    4.7545   -3.3810    2.5717 H   0  0  0  0  0  0  0  0  0  0  0  0
    3.3206   -1.6574    1.5266 H   0  0  0  0  0  0  0  0  0  0  0  0
    2.3835   -1.3808   -1.3267 H   0  0  0  0  0  0  0  0  0  0  0  0
    4.2339    0.2949    0.4201 H   0  0  0  0  0  0  0  0  0  0  0  0
    4.6612   -0.7130   -0.9766 H   0  0  0  0  0  0  0  0  0  0  0  0
    4.5342    0.4423   -3.3673 H   0  0  0  0  0  0  0  0  0  0  0  0
    3.9178    2.8496   -4.2032 H   0  0  0  0  0  0  0  0  0  0  0  0
    2.6351    2.2946    0.9507 H   0  0  0  0  0  0  0  0  0  0  0  0
    1.8192    4.5283    1.0457 H   0  0  0  0  0  0  0  0  0  0  0  0
    1.8860    5.9674   -0.9527 H   0  0  0  0  0  0  0  0  0  0  0  0
    2.7962    5.0630   -3.0458 H   0  0  0  0  0  0  0  0  0  0  0  0
   -0.0297   -1.0933   -2.0712 H   0  0  0  0  0  0  0  0  0  0  0  0
    1.2159    0.1266   -2.3199 H   0  0  0  0  0  0  0  0  0  0  0  0
   -0.9539    0.4507   -3.5023 H   0  0  0  0  0  0  0  0  0  0  0  0
   -0.2561    1.8585   -2.6848 H   0  0  0  0  0  0  0  0  0  0  0  0
   -2.8332    0.4635   -2.2577 H   0  0  0  0  0  0  0  0  0  0  0  0
   -2.3322    2.1017   -1.8378 H   0  0  0  0  0  0  0  0  0  0  0  0
   -0.5800    0.6186    1.3784 H   0  0  0  0  0  0  0  0  0  0  0  0
   -0.3162    2.0020    0.2257 H   0  0  0  0  0  0  0  0  0  0  0  0
   -1.7950   -1.4550   -0.4565 H   0  0  0  0  0  0  0  0  0  0  0  0
   -3.4479   -0.8412   -0.3740 H   0  0  0  0  0  0  0  0  0  0  0  0
   -0.4721   -1.9088    1.4583 H   0  0  0  0  0  0  0  0  0  0  0  0
   -0.4922   -2.3709    3.8742 H   0  0  0  0  0  0  0  0  0  0  0  0
   -2.4232   -1.7793    5.2778 H   0  0  0  0  0  0  0  0  0  0  0  0
   -4.3618   -0.7012    4.2408 H   0  0  0  0  0  0  0  0  0  0  0  0
   -4.3480   -0.2306    1.8408 H   0  0  0  0  0  0  0  0  0  0  0  0
   -5.9949    3.0995    0.1460 H   0  0  0  0  0  0  0  0  0  0  0  0
   -5.5022    2.3940    1.6863 H   0  0  0  0  0  0  0  0  0  0  0  0
   -4.5503    3.7833    0.9254 H   0  0  0  0  0  0  0  0  0  0  0  0
   -6.5988    0.2431   -1.5326 H   0  0  0  0  0  0  0  0  0  0  0  0
   -5.7999   -0.4746   -0.0381 H   0  0  0  0  0  0  0  0  0  0  0  0
   -6.6587    1.1121    0.0128 H   0  0  0  0  0  0  0  0  0  0  0  0
   -6.2895    2.3774   -1.8982 H   0  0  0  0  0  0  0  0  0  0  0  0
   -5.3344    1.3824   -2.9929 H   0  0  0  0  0  0  0  0  0  0  0  0
   -4.5554    2.8400   -2.3197 H   0  0  0  0  0  0  0  0  0  0  0  0
    4.2282   -5.2360   -0.7808 H   0  0  0  0  0  0  0  0  0  0  0  0
    4.8202   -6.1027    0.5711 H   0  0  0  0  0  0  0  0  0  0  0  0
  1  2  1  0
  2  3  1  0
  2  4  1  0
  4  5  2  0
  4  6  1  0
  7  6  1  0
  7  8  1  0
  8  9  1  0
  9 10  2  0
 10 11  1  0
 11 12  1  0
 12 13  2  0
  9 13  1  0
 13 14  1  0
 14 15  2  0
 15 16  1  0
 16 17  2  0
 12 17  1  0
  7 18  1  0
 18 19  2  0
 18 20  1  0
 20 21  1  0
 21 22  1  0
 22 23  1  0
 23 24  1  0
 24 25  1  0
 20 25  1  0
 24 26  1  0
 26 27  1  0
 27 28  2  0
 28 29  1  0
 29 30  2  0
 30 31  1  0
 31 32  2  0
 27 32  1  0
 24 33  1  1
 33 34  2  0
 33 35  1  0
 35 36  1  0
 35 37  1  0
 37 38  1  0
 37 39  1  0
  2 40  1  0
  1 41  1  0
  1 42  1  0
  1 43  1  0
  3 44  1  0
  3 45  1  0
  3 46  1  0
  6 47  1  0
  7 48  1  6
  8 49  1  0
  8 50  1  0
 10 51  1  0
 11 52  1  0
 14 53  1  0
 15 54  1  0
 16 55  1  0
 17 56  1  0
 21 57  1  0
 21 58  1  0
 22 59  1  0
 22 60  1  0
 23 61  1  0
 23 62  1  0
 25 63  1  0
 25 64  1  0
 26 65  1  0
 26 66  1  0
 28 67  1  0
 29 68  1  0
 30 69  1  0
 31 70  1  0
 32 71  1  0
 36 72  1  0
 36 73  1  0
 36 74  1  0
 38 75  1  0
 38 76  1  0
 38 77  1  0
 39 78  1  0
 39 79  1  0
 39 80  1  0
 40 81  1  0
 40 82  1  0
M  END

