404772381
     RDKit          3D

 99100  0  0  0  0  0  0  0  0999 V2000
   12.6719    0.8276    2.7554 C   0  0  0  0  0  0  0  0  0  0  0  0
   11.7835    0.1412    1.7184 C   0  0  0  0  0  0  0  0  0  0  0  0
   12.0196   -1.2965    1.4648 C   0  0  0  0  0  0  0  0  0  0  0  0
   10.8879    0.8563    1.1171 C   0  0  0  0  0  0  0  0  0  0  0  0
    9.8831    0.5872    0.1057 C   0  0  0  0  0  0  0  0  0  0  0  0
    9.7037   -0.8008   -0.3945 C   0  0  0  0  0  0  0  0  0  0  0  0
    8.5946   -0.7261   -1.4420 C   0  0  0  0  0  0  0  0  0  0  0  0
    8.7589    0.1227   -2.6502 C   0  0  0  0  0  0  0  0  0  0  0  0
    7.4657   -1.4109   -1.3064 C   0  0  0  0  0  0  0  0  0  0  0  0
    6.3545   -1.3962   -2.2649 C   0  0  0  0  0  0  0  0  0  0  0  0
    5.0528   -0.8504   -1.8183 C   0  0  0  0  0  0  0  0  0  0  0  0
    4.4693   -1.5277   -0.6346 C   0  0  0  0  0  0  0  0  0  0  0  0
    5.1292   -1.4199    0.6683 C   0  0  0  0  0  0  0  0  0  0  0  0
    3.3146   -2.1944   -0.7514 C   0  0  0  0  0  0  0  0  0  0  0  0
    2.7490   -2.8599    0.4290 C   0  0  0  0  0  0  0  0  0  0  0  0
    1.3496   -2.4183    0.7638 C   0  0  0  0  0  0  0  0  0  0  0  0
    1.1933   -0.9844    1.0627 C   0  0  0  0  0  0  0  0  0  0  0  0
    1.5022    0.0921    0.0858 C   0  0  0  0  0  0  0  0  0  0  0  0
    0.7359   -0.5834    2.2625 C   0  0  0  0  0  0  0  0  0  0  0  0
    0.5443    0.8313    2.6507 C   0  0  0  0  0  0  0  0  0  0  0  0
   -0.8827    1.0921    2.9677 C   0  0  0  0  0  0  0  0  0  0  0  0
   -1.7947    0.8672    1.8230 C   0  0  0  0  0  0  0  0  0  0  0  0
   -1.9558   -0.4597    1.2019 C   0  0  0  0  0  0  0  0  0  0  0  0
   -2.5451    1.8509    1.3239 C   0  0  0  0  0  0  0  0  0  0  0  0
   -3.4491    1.6247    0.1818 C   0  0  0  0  0  0  0  0  0  0  0  0
   -4.8767    1.8117    0.6550 C   0  0  0  0  0  0  0  0  0  0  0  0
   -5.8473    1.5807   -0.4555 C   0  0  0  0  0  0  0  0  0  0  0  0
   -5.8128    2.4226   -1.6538 C   0  0  0  0  0  0  0  0  0  0  0  0
   -6.7788    0.5970   -0.3828 C   0  0  0  0  0  0  0  0  0  0  0  0
   -7.7458    0.3074   -1.4001 C   0  0  0  0  0  0  0  0  0  0  0  0
   -9.1870    0.3324   -1.1073 C   0  0  0  0  0  0  0  0  0  0  0  0
   -9.7541    0.6774    0.0224 C   0  0  0  0  0  0  0  0  0  0  0  0
   -8.9581    1.1115    1.2083 C   0  0  0  0  0  0  0  0  0  0  0  0
  -11.2262    0.6512    0.2169 C   0  0  0  0  0  0  0  0  0  0  0  0
  -11.7567    0.9869    1.3125 O   0  0  0  0  0  0  0  0  0  0  0  0
  -12.1304    0.2410   -0.8346 C   0  0  0  0  0  0  0  0  0  0  0  0
  -11.5425   -0.1240   -2.0291 C   0  0  0  0  0  0  0  0  0  0  0  0
  -12.3963   -0.5282   -3.0516 C   0  0  0  0  0  0  0  0  0  0  0  0
  -13.7567   -0.5546   -2.8570 C   0  0  0  0  0  0  0  0  0  0  0  0
  -14.3261   -0.1839   -1.6497 C   0  0  0  0  0  0  0  0  0  0  0  0
  -13.4991    0.2186   -0.6268 C   0  0  0  0  0  0  0  0  0  0  0  0
  -10.1117   -0.0933   -2.2034 C   0  0  0  0  0  0  0  0  0  0  0  0
   -9.6215   -0.4276   -3.2910 O   0  0  0  0  0  0  0  0  0  0  0  0
   12.6500    0.2690    3.6968 H   0  0  0  0  0  0  0  0  0  0  0  0
   12.3089    1.8573    2.9459 H   0  0  0  0  0  0  0  0  0  0  0  0
   13.6765    0.9066    2.2924 H   0  0  0  0  0  0  0  0  0  0  0  0
   12.4157   -1.4393    0.4347 H   0  0  0  0  0  0  0  0  0  0  0  0
   11.1571   -1.9507    1.5984 H   0  0  0  0  0  0  0  0  0  0  0  0
   12.8180   -1.6815    2.1925 H   0  0  0  0  0  0  0  0  0  0  0  0
   10.8791    1.9471    1.4526 H   0  0  0  0  0  0  0  0  0  0  0  0
   10.1673    1.2298   -0.7954 H   0  0  0  0  0  0  0  0  0  0  0  0
    8.8588    0.9498    0.4467 H   0  0  0  0  0  0  0  0  0  0  0  0
    9.2931   -1.4808    0.4021 H   0  0  0  0  0  0  0  0  0  0  0  0
   10.5515   -1.2292   -0.9438 H   0  0  0  0  0  0  0  0  0  0  0  0
    8.1463    1.0481   -2.5932 H   0  0  0  0  0  0  0  0  0  0  0  0
    9.8269    0.4854   -2.6470 H   0  0  0  0  0  0  0  0  0  0  0  0
    8.6097   -0.4330   -3.6056 H   0  0  0  0  0  0  0  0  0  0  0  0
    7.4283   -2.0366   -0.3962 H   0  0  0  0  0  0  0  0  0  0  0  0
    6.1565   -2.4774   -2.5639 H   0  0  0  0  0  0  0  0  0  0  0  0
    6.6905   -0.9444   -3.2355 H   0  0  0  0  0  0  0  0  0  0  0  0
    4.3089   -0.7545   -2.6440 H   0  0  0  0  0  0  0  0  0  0  0  0
    5.2366    0.2155   -1.4721 H   0  0  0  0  0  0  0  0  0  0  0  0
    4.4599   -1.0225    1.4709 H   0  0  0  0  0  0  0  0  0  0  0  0
    5.9136   -0.6080    0.5924 H   0  0  0  0  0  0  0  0  0  0  0  0
    5.5279   -2.3821    0.9735 H   0  0  0  0  0  0  0  0  0  0  0  0
    2.8218   -2.2322   -1.7428 H   0  0  0  0  0  0  0  0  0  0  0  0
    3.3745   -2.6409    1.3187 H   0  0  0  0  0  0  0  0  0  0  0  0
    2.8009   -3.9809    0.3442 H   0  0  0  0  0  0  0  0  0  0  0  0
    0.6838   -2.6577   -0.1272 H   0  0  0  0  0  0  0  0  0  0  0  0
    0.9372   -3.0001    1.6158 H   0  0  0  0  0  0  0  0  0  0  0  0
    1.7660   -0.2933   -0.9143 H   0  0  0  0  0  0  0  0  0  0  0  0
    0.5798    0.7478    0.0114 H   0  0  0  0  0  0  0  0  0  0  0  0
    2.3651    0.7390    0.4065 H   0  0  0  0  0  0  0  0  0  0  0  0
    0.5134   -1.4032    2.9708 H   0  0  0  0  0  0  0  0  0  0  0  0
    1.1389    1.0759    3.5648 H   0  0  0  0  0  0  0  0  0  0  0  0
    0.8556    1.5351    1.8507 H   0  0  0  0  0  0  0  0  0  0  0  0
   -1.2673    0.4652    3.8095 H   0  0  0  0  0  0  0  0  0  0  0  0
   -1.0607    2.1443    3.3259 H   0  0  0  0  0  0  0  0  0  0  0  0
   -1.5642   -1.2274    1.8849 H   0  0  0  0  0  0  0  0  0  0  0  0
   -3.0720   -0.6407    1.0304 H   0  0  0  0  0  0  0  0  0  0  0  0
   -1.5097   -0.5885    0.2186 H   0  0  0  0  0  0  0  0  0  0  0  0
   -2.4749    2.8196    1.7774 H   0  0  0  0  0  0  0  0  0  0  0  0
   -3.3093    2.4675   -0.5785 H   0  0  0  0  0  0  0  0  0  0  0  0
   -3.2754    0.7224   -0.3990 H   0  0  0  0  0  0  0  0  0  0  0  0
   -5.0395    2.8500    1.0045 H   0  0  0  0  0  0  0  0  0  0  0  0
   -5.1083    1.1559    1.5095 H   0  0  0  0  0  0  0  0  0  0  0  0
   -5.2422    3.3498   -1.4212 H   0  0  0  0  0  0  0  0  0  0  0  0
   -5.3246    1.9661   -2.5305 H   0  0  0  0  0  0  0  0  0  0  0  0
   -6.8512    2.7535   -1.9459 H   0  0  0  0  0  0  0  0  0  0  0  0
   -6.6854    0.0267    0.5586 H   0  0  0  0  0  0  0  0  0  0  0  0
   -7.5888    0.8977   -2.3508 H   0  0  0  0  0  0  0  0  0  0  0  0
   -7.5484   -0.7540   -1.7629 H   0  0  0  0  0  0  0  0  0  0  0  0
   -8.5966    0.2620    1.7941 H   0  0  0  0  0  0  0  0  0  0  0  0
   -9.6910    1.6426    1.9080 H   0  0  0  0  0  0  0  0  0  0  0  0
   -8.2301    1.8993    0.9743 H   0  0  0  0  0  0  0  0  0  0  0  0
  -11.9219   -0.8157   -3.9968 H   0  0  0  0  0  0  0  0  0  0  0  0
  -14.4222   -0.8766   -3.6728 H   0  0  0  0  0  0  0  0  0  0  0  0
  -15.4094   -0.2244   -1.5506 H   0  0  0  0  0  0  0  0  0  0  0  0
  -13.9336    0.5098    0.3198 H   0  0  0  0  0  0  0  0  0  0  0  0
  1  2  1  0
  2  3  1  0
  2  4  2  3
  4  5  1  0
  5  6  1  0
  6  7  1  0
  7  8  1  0
  7  9  2  0
  9 10  1  0
 10 11  1  0
 11 12  1  0
 12 13  1  0
 12 14  2  0
 14 15  1  0
 15 16  1  0
 16 17  1  0
 17 18  1  0
 17 19  2  0
 19 20  1  0
 20 21  1  0
 21 22  1  0
 22 23  1  0
 22 24  2  0
 24 25  1  0
 25 26  1  0
 26 27  1  0
 27 28  1  0
 27 29  2  0
 29 30  1  0
 30 31  1  0
 31 32  2  0
 32 33  1  0
 32 34  1  0
 34 35  2  0
 34 36  1  0
 36 37  2  0
 37 38  1  0
 38 39  2  0
 39 40  1  0
 40 41  2  0
 36 41  1  0
 37 42  1  0
 31 42  1  0
 42 43  2  0
  1 44  1  0
  1 45  1  0
  1 46  1  0
  3 47  1  0
  3 48  1  0
  3 49  1  0
  4 50  1  0
  5 51  1  0
  5 52  1  0
  6 53  1  0
  6 54  1  0
  8 55  1  0
  8 56  1  0
  8 57  1  0
  9 58  1  0
 10 59  1  0
 10 60  1  0
 11 61  1  0
 11 62  1  0
 13 63  1  0
 13 64  1  0
 13 65  1  0
 14 66  1  0
 15 67  1  0
 15 68  1  0
 16 69  1  0
 16 70  1  0
 18 71  1  0
 18 72  1  0
 18 73  1  0
 19 74  1  0
 20 75  1  0
 20 76  1  0
 21 77  1  0
 21 78  1  0
 23 79  1  0
 23 80  1  0
 23 81  1  0
 24 82  1  0
 25 83  1  0
 25 84  1  0
 26 85  1  0
 26 86  1  0
 28 87  1  0
 28 88  1  0
 28 89  1  0
 29 90  1  0
 30 91  1  0
 30 92  1  0
 33 93  1  0
 33 94  1  0
 33 95  1  0
 38 96  1  0
 39 97  1  0
 40 98  1  0
 41 99  1  0
M  END

