404772826
     RDKit          3D

 58 63  0  0  1  0  0  0  0  0999 V2000
    1.1492   -1.0314    2.5532 C   0  0  0  0  0  0  0  0  0  0  0  0
    1.8185   -1.5755    1.3046 C   0  0  1  0  0  0  0  0  0  0  0  0
    3.1878   -2.0667    1.7238 C   0  0  0  0  0  0  0  0  0  0  0  0
    3.1964   -3.5564    1.4610 C   0  0  0  0  0  0  0  0  0  0  0  0
    1.7534   -3.9130    1.3168 C   0  0  0  0  0  0  0  0  0  0  0  0
    1.1621   -2.7172    0.7801 N   0  0  0  0  0  0  0  0  0  0  0  0
    0.0782   -2.7191   -0.1386 C   0  0  0  0  0  0  0  0  0  0  0  0
   -0.1433   -3.8383   -0.9016 N   0  0  0  0  0  0  0  0  0  0  0  0
   -1.1299   -3.9431   -1.7617 N   0  0  0  0  0  0  0  0  0  0  0  0
   -1.5257   -4.9246   -2.5939 C   0  0  0  0  0  0  0  0  0  0  0  0
   -2.6310   -4.5457   -3.2990 C   0  0  0  0  0  0  0  0  0  0  0  0
   -2.9459   -3.2689   -2.8932 C   0  0  0  0  0  0  0  0  0  0  0  0
   -1.9842   -2.9310   -1.9328 C   0  0  0  0  0  0  0  0  0  0  0  0
   -1.7822   -1.7804   -1.1683 C   0  0  0  0  0  0  0  0  0  0  0  0
   -2.6931   -0.6951   -1.3524 N   0  0  0  0  0  0  0  0  0  0  0  0
   -2.5774    0.5075   -0.6086 C   0  0  0  0  0  0  0  0  0  0  0  0
   -1.6656    0.8283    0.3375 N   0  0  0  0  0  0  0  0  0  0  0  0
   -1.9056    2.0427    0.7934 N   0  0  0  0  0  0  0  0  0  0  0  0
   -2.9877    2.5694    0.1631 C   0  0  0  0  0  0  0  0  0  0  0  0
   -3.4033    1.6030   -0.7143 C   0  0  0  0  0  0  0  0  0  0  0  0
   -3.6008    3.8965    0.3802 C   0  0  0  0  0  0  0  0  0  0  0  0
   -2.7243    5.0066    0.8395 C   0  0  0  0  0  0  0  0  0  0  0  0
   -3.7453    4.3968    1.7876 C   0  0  0  0  0  0  0  0  0  0  0  0
   -0.7687   -1.7122   -0.3052 N   0  0  0  0  0  0  0  0  0  0  0  0
    1.9498   -0.4517    0.3255 C   0  0  0  0  0  0  0  0  0  0  0  0
    1.5374   -0.6526   -0.8289 O   0  0  0  0  0  0  0  0  0  0  0  0
    2.5135    0.7553    0.7174 N   0  0  0  0  0  0  0  0  0  0  0  0
    2.7146    1.9255   -0.0425 C   0  0  0  0  0  0  0  0  0  0  0  0
    2.2472    2.0582   -1.3309 C   0  0  0  0  0  0  0  0  0  0  0  0
    2.4643    3.2065   -2.0241 N   0  0  0  0  0  0  0  0  0  0  0  0
    3.1282    4.2590   -1.5192 C   0  0  0  0  0  0  0  0  0  0  0  0
    3.3117    5.3831   -2.2612 F   0  0  0  0  0  0  0  0  0  0  0  0
    3.6148    4.1729   -0.2322 C   0  0  0  0  0  0  0  0  0  0  0  0
    3.3998    3.0185    0.4746 C   0  0  0  0  0  0  0  0  0  0  0  0
    1.0255    0.0555    2.4112 H   0  0  0  0  0  0  0  0  0  0  0  0
    0.1039   -1.4454    2.6425 H   0  0  0  0  0  0  0  0  0  0  0  0
    1.7386   -1.1871    3.4581 H   0  0  0  0  0  0  0  0  0  0  0  0
    3.9317   -1.5338    1.0798 H   0  0  0  0  0  0  0  0  0  0  0  0
    3.3949   -1.8822    2.8012 H   0  0  0  0  0  0  0  0  0  0  0  0
    3.6840   -3.7292    0.4629 H   0  0  0  0  0  0  0  0  0  0  0  0
    3.7271   -4.1163    2.2567 H   0  0  0  0  0  0  0  0  0  0  0  0
    1.2826   -4.2315    2.2731 H   0  0  0  0  0  0  0  0  0  0  0  0
    1.6363   -4.8039    0.6463 H   0  0  0  0  0  0  0  0  0  0  0  0
   -1.0269   -5.9023   -2.6926 H   0  0  0  0  0  0  0  0  0  0  0  0
   -3.1894   -5.1225   -4.0538 H   0  0  0  0  0  0  0  0  0  0  0  0
   -3.7418   -2.6233   -3.2079 H   0  0  0  0  0  0  0  0  0  0  0  0
   -3.4490   -0.7937   -2.0446 H   0  0  0  0  0  0  0  0  0  0  0  0
   -1.3335    2.5319    1.5439 H   0  0  0  0  0  0  0  0  0  0  0  0
   -4.2419    1.6837   -1.3816 H   0  0  0  0  0  0  0  0  0  0  0  0
   -4.4140    4.1515   -0.3568 H   0  0  0  0  0  0  0  0  0  0  0  0
   -1.6507    4.8103    1.0953 H   0  0  0  0  0  0  0  0  0  0  0  0
   -2.9449    6.0729    0.5678 H   0  0  0  0  0  0  0  0  0  0  0  0
   -4.6496    4.9875    2.0452 H   0  0  0  0  0  0  0  0  0  0  0  0
   -3.3748    3.7161    2.5824 H   0  0  0  0  0  0  0  0  0  0  0  0
    2.8430    0.8161    1.7330 H   0  0  0  0  0  0  0  0  0  0  0  0
    1.7001    1.2937   -1.8487 H   0  0  0  0  0  0  0  0  0  0  0  0
    4.1626    5.0227    0.2025 H   0  0  0  0  0  0  0  0  0  0  0  0
    3.7732    2.9224    1.4905 H   0  0  0  0  0  0  0  0  0  0  0  0
  2  1  1  0
  2  3  1  0
  3  4  1  0
  4  5  1  0
  5  6  1  0
  2  6  1  0
  6  7  1  0
  7  8  2  0
  8  9  1  0
  9 10  1  0
 10 11  2  0
 11 12  1  0
 12 13  2  0
  9 13  1  0
 13 14  1  0
 14 15  1  0
 15 16  1  0
 16 17  2  0
 17 18  1  0
 18 19  1  0
 19 20  2  0
 16 20  1  0
 19 21  1  0
 21 22  1  0
 22 23  1  0
 21 23  1  0
 14 24  2  0
  7 24  1  0
  2 25  1  6
 25 26  2  0
 25 27  1  0
 27 28  1  0
 28 29  2  0
 29 30  1  0
 30 31  2  0
 31 32  1  0
 31 33  1  0
 33 34  2  0
 28 34  1  0
  1 35  1  0
  1 36  1  0
  1 37  1  0
  3 38  1  0
  3 39  1  0
  4 40  1  0
  4 41  1  0
  5 42  1  0
  5 43  1  0
 10 44  1  0
 11 45  1  0
 12 46  1  0
 15 47  1  0
 18 48  1  0
 20 49  1  0
 21 50  1  0
 22 51  1  0
 22 52  1  0
 23 53  1  0
 23 54  1  0
 27 55  1  0
 29 56  1  0
 33 57  1  0
 34 58  1  0
M  END

