404772978
     RDKit          3D

 34 35  0  0  1  0  0  0  0  0999 V2000
   -1.7923    1.3552   -1.8166 O   0  0  0  0  0  0  0  0  0  0  0  0
   -3.0197    1.2058   -1.2201 C   0  0  0  0  0  0  0  0  0  0  0  0
   -3.8102    2.1814   -1.2795 O   0  0  0  0  0  0  0  0  0  0  0  0
   -3.4938    0.0001   -0.5159 C   0  0  0  0  0  0  0  0  0  0  0  0
   -2.4771   -1.0851   -0.3668 C   0  0  1  0  0  0  0  0  0  0  0  0
   -2.0236   -1.5094   -1.6021 O   0  0  0  0  0  0  0  0  0  0  0  0
   -1.4076   -0.7477    0.6195 C   0  0  1  0  0  0  0  0  0  0  0  0
   -0.4851   -1.9254    0.8551 C   0  0  2  0  0  0  0  0  0  0  0  0
   -0.9899   -2.8385    1.9286 C   0  0  0  0  0  0  0  0  0  0  0  0
    0.7115   -1.2615    1.2208 O   0  0  0  0  0  0  0  0  0  0  0  0
    0.7005   -0.0373    0.5916 C   0  0  0  0  0  0  0  0  0  0  0  0
   -0.5102    0.2961    0.2275 N   0  0  0  0  0  0  0  0  0  0  0  0
    1.8824    0.7853    0.3586 C   0  0  0  0  0  0  0  0  0  0  0  0
    1.7722    2.0083   -0.2867 C   0  0  0  0  0  0  0  0  0  0  0  0
    2.8456    2.8238   -0.5311 C   0  0  0  0  0  0  0  0  0  0  0  0
    4.0821    2.3775   -0.1018 C   0  0  0  0  0  0  0  0  0  0  0  0
    4.2443    1.1719    0.5430 C   0  0  0  0  0  0  0  0  0  0  0  0
    3.1271    0.3793    0.7686 C   0  0  0  0  0  0  0  0  0  0  0  0
    3.2685   -0.8427    1.4184 O   0  0  0  0  0  0  0  0  0  0  0  0
   -1.2883    2.2211   -1.8883 H   0  0  0  0  0  0  0  0  0  0  0  0
   -4.3450   -0.4277   -1.1205 H   0  0  0  0  0  0  0  0  0  0  0  0
   -3.9673    0.2697    0.4618 H   0  0  0  0  0  0  0  0  0  0  0  0
   -2.9883   -2.0134    0.0667 H   0  0  0  0  0  0  0  0  0  0  0  0
   -2.2605   -0.8752   -2.3350 H   0  0  0  0  0  0  0  0  0  0  0  0
   -1.9052   -0.4969    1.5853 H   0  0  0  0  0  0  0  0  0  0  0  0
   -0.3854   -2.4802   -0.0900 H   0  0  0  0  0  0  0  0  0  0  0  0
   -2.0805   -2.7218    2.0427 H   0  0  0  0  0  0  0  0  0  0  0  0
   -0.7545   -3.8886    1.6296 H   0  0  0  0  0  0  0  0  0  0  0  0
   -0.4381   -2.6252    2.8774 H   0  0  0  0  0  0  0  0  0  0  0  0
    0.7789    2.3124   -0.6041 H   0  0  0  0  0  0  0  0  0  0  0  0
    2.7225    3.7721   -1.0378 H   0  0  0  0  0  0  0  0  0  0  0  0
    4.9308    3.0037   -0.2856 H   0  0  0  0  0  0  0  0  0  0  0  0
    5.1912    0.7945    0.8900 H   0  0  0  0  0  0  0  0  0  0  0  0
    4.1650   -1.1816    1.7379 H   0  0  0  0  0  0  0  0  0  0  0  0
  1  2  1  0
  2  3  2  0
  2  4  1  0
  4  5  1  0
  5  6  1  0
  7  5  1  0
  7  8  1  0
  8  9  1  0
  8 10  1  0
 10 11  1  0
 11 12  2  0
  7 12  1  0
 11 13  1  0
 13 14  2  0
 14 15  1  0
 15 16  2  0
 16 17  1  0
 17 18  2  0
 13 18  1  0
 18 19  1  0
  1 20  1  0
  4 21  1  0
  4 22  1  0
  5 23  1  1
  6 24  1  0
  7 25  1  1
  8 26  1  6
  9 27  1  0
  9 28  1  0
  9 29  1  0
 14 30  1  0
 15 31  1  0
 16 32  1  0
 17 33  1  0
 19 34  1  0
M  END

