404772345
     RDKit          3D

 65 67  0  0  1  0  0  0  0  0999 V2000
   -8.6415   -0.1768   -2.0430 C   0  0  0  0  0  0  0  0  0  0  0  0
   -7.8453    0.8625   -1.5104 O   0  0  0  0  0  0  0  0  0  0  0  0
   -6.7173    0.5196   -0.7815 C   0  0  0  0  0  0  0  0  0  0  0  0
   -5.9030    1.5234   -0.2369 C   0  0  0  0  0  0  0  0  0  0  0  0
   -6.3056    2.8281   -0.4801 O   0  0  0  0  0  0  0  0  0  0  0  0
   -5.6088    3.9539   -0.0101 C   0  0  0  0  0  0  0  0  0  0  0  0
   -4.7791    1.2140    0.4904 C   0  0  0  0  0  0  0  0  0  0  0  0
   -4.4544   -0.1112    0.6827 C   0  0  0  0  0  0  0  0  0  0  0  0
   -3.2620   -0.5293    1.4596 C   0  0  0  0  0  0  0  0  0  0  0  0
   -2.5857   -1.6368    0.8930 N   0  0  0  0  0  0  0  0  0  0  0  0
   -1.2302   -1.4109    0.5122 C   0  0  0  0  0  0  0  0  0  0  0  0
   -0.3814   -1.2032    1.7517 C   0  0  0  0  0  0  0  0  0  0  0  0
    1.0726   -0.9662    1.4494 C   0  0  0  0  0  0  0  0  0  0  0  0
    1.2994    0.2502    0.6017 C   0  0  0  0  0  0  0  0  0  0  0  0
    2.7034    0.4870    0.3074 N   0  0  0  0  0  0  0  0  0  0  0  0
    3.4998   -0.4339   -0.3992 C   0  0  0  0  0  0  0  0  0  0  0  0
    2.8880   -1.5081   -0.7733 O   0  0  0  0  0  0  0  0  0  0  0  0
    4.8828   -0.3509   -0.7600 C   0  0  0  0  0  0  0  0  0  0  0  0
    5.6896    0.7282   -0.4369 C   0  0  0  0  0  0  0  0  0  0  0  0
    5.1428    1.7533    0.2511 O   0  0  0  0  0  0  0  0  0  0  0  0
    5.7550    2.8928    0.6973 C   0  0  0  0  0  0  0  0  0  0  0  0
    6.8176    2.7440    1.7449 C   0  0  0  0  0  0  0  0  0  0  0  0
    7.2840    4.0342    2.0148 F   0  0  0  0  0  0  0  0  0  0  0  0
    7.0263    0.6999   -0.8449 C   0  0  0  0  0  0  0  0  0  0  0  0
    7.5708   -0.3544   -1.5505 C   0  0  0  0  0  0  0  0  0  0  0  0
    6.7781   -1.4193   -1.8695 C   0  0  0  0  0  0  0  0  0  0  0  0
    7.3016   -2.5977   -2.6340 C   0  0  0  0  0  0  0  0  0  0  0  0
    5.4733   -1.3982   -1.4761 C   0  0  0  0  0  0  0  0  0  0  0  0
   -3.3302   -2.5239    0.0733 C   0  0  0  0  0  0  0  0  0  0  0  0
   -4.8252   -2.5005    0.4021 C   0  0  0  0  0  0  0  0  0  0  0  0
   -5.2503   -1.1023    0.1501 C   0  0  0  0  0  0  0  0  0  0  0  0
   -6.3813   -0.8167   -0.5822 C   0  0  0  0  0  0  0  0  0  0  0  0
   -8.9025   -0.8364   -1.1649 H   0  0  0  0  0  0  0  0  0  0  0  0
   -8.0633   -0.7054   -2.8009 H   0  0  0  0  0  0  0  0  0  0  0  0
   -9.6025    0.2484   -2.3990 H   0  0  0  0  0  0  0  0  0  0  0  0
   -6.2287    4.8576   -0.2871 H   0  0  0  0  0  0  0  0  0  0  0  0
   -5.5293    3.9933    1.0964 H   0  0  0  0  0  0  0  0  0  0  0  0
   -4.6428    4.1043   -0.5163 H   0  0  0  0  0  0  0  0  0  0  0  0
   -4.1834    2.0129    0.8898 H   0  0  0  0  0  0  0  0  0  0  0  0
   -2.5757    0.3429    1.5119 H   0  0  0  0  0  0  0  0  0  0  0  0
   -3.5767   -0.7829    2.5145 H   0  0  0  0  0  0  0  0  0  0  0  0
   -1.1781   -0.4522   -0.0827 H   0  0  0  0  0  0  0  0  0  0  0  0
   -0.8139   -2.1836   -0.1525 H   0  0  0  0  0  0  0  0  0  0  0  0
   -0.4443   -2.1326    2.3791 H   0  0  0  0  0  0  0  0  0  0  0  0
   -0.7725   -0.3768    2.3704 H   0  0  0  0  0  0  0  0  0  0  0  0
    1.5532   -0.7505    2.4398 H   0  0  0  0  0  0  0  0  0  0  0  0
    1.5731   -1.8572    1.0728 H   0  0  0  0  0  0  0  0  0  0  0  0
    0.9068    1.1259    1.1347 H   0  0  0  0  0  0  0  0  0  0  0  0
    0.7302    0.1642   -0.3752 H   0  0  0  0  0  0  0  0  0  0  0  0
    3.0888    1.3752    0.6472 H   0  0  0  0  0  0  0  0  0  0  0  0
    4.9587    3.5474    1.1638 H   0  0  0  0  0  0  0  0  0  0  0  0
    6.2197    3.5072   -0.1200 H   0  0  0  0  0  0  0  0  0  0  0  0
    6.3361    2.4365    2.7294 H   0  0  0  0  0  0  0  0  0  0  0  0
    7.6575    2.1102    1.5329 H   0  0  0  0  0  0  0  0  0  0  0  0
    7.6493    1.5594   -0.6160 H   0  0  0  0  0  0  0  0  0  0  0  0
    8.6122   -0.3560   -1.8564 H   0  0  0  0  0  0  0  0  0  0  0  0
    7.6379   -3.3275   -1.8586 H   0  0  0  0  0  0  0  0  0  0  0  0
    6.4406   -3.0507   -3.1625 H   0  0  0  0  0  0  0  0  0  0  0  0
    8.0961   -2.3101   -3.3310 H   0  0  0  0  0  0  0  0  0  0  0  0
    4.8668   -2.2524   -1.7413 H   0  0  0  0  0  0  0  0  0  0  0  0
   -3.2579   -2.3132   -1.0084 H   0  0  0  0  0  0  0  0  0  0  0  0
   -2.9967   -3.5756    0.2314 H   0  0  0  0  0  0  0  0  0  0  0  0
   -4.9050   -2.7432    1.4849 H   0  0  0  0  0  0  0  0  0  0  0  0
   -5.3223   -3.2398   -0.2376 H   0  0  0  0  0  0  0  0  0  0  0  0
   -7.0152   -1.5900   -1.0066 H   0  0  0  0  0  0  0  0  0  0  0  0
  1  2  1  0
  2  3  1  0
  3  4  2  0
  4  5  1  0
  5  6  1  0
  4  7  1  0
  7  8  2  0
  8  9  1  0
  9 10  1  0
 10 11  1  0
 11 12  1  0
 12 13  1  0
 13 14  1  0
 14 15  1  0
 15 16  1  0
 16 17  2  0
 16 18  1  0
 18 19  2  0
 19 20  1  0
 20 21  1  0
 21 22  1  0
 22 23  1  0
 19 24  1  0
 24 25  2  0
 25 26  1  0
 26 27  1  0
 26 28  2  0
 18 28  1  0
 10 29  1  0
 29 30  1  0
 30 31  1  0
  8 31  1  0
 31 32  2  0
  3 32  1  0
  1 33  1  0
  1 34  1  0
  1 35  1  0
  6 36  1  0
  6 37  1  0
  6 38  1  0
  7 39  1  0
  9 40  1  0
  9 41  1  0
 11 42  1  0
 11 43  1  0
 12 44  1  0
 12 45  1  0
 13 46  1  0
 13 47  1  0
 14 48  1  0
 14 49  1  0
 15 50  1  0
 21 51  1  0
 21 52  1  0
 22 53  1  0
 22 54  1  0
 24 55  1  0
 25 56  1  0
 27 57  1  0
 27 58  1  0
 27 59  1  0
 28 60  1  0
 29 61  1  0
 29 62  1  0
 30 63  1  0
 30 64  1  0
 32 65  1  0
M  ISO  1  23  18
M  END

