404770707
     RDKit          3D

 73 76  0  0  1  0  0  0  0  0999 V2000
   -6.8089    2.5722    1.1586 C   0  0  0  0  0  0  0  0  0  0  0  0
   -5.7406    0.6094   -0.5121 C   0  0  0  0  0  0  0  0  0  0  0  0
    6.9131    0.0848   -0.4631 C   0  0  0  0  0  0  0  0  0  0  0  0
   -0.0691   -3.5226    2.9438 C   0  0  0  0  0  0  0  0  0  0  0  0
   -4.7138    1.0318   -1.5119 C   0  0  2  0  0  0  0  0  0  0  0  0
    5.7284    0.0598    0.4725 C   0  0  1  0  0  0  0  0  0  0  0  0
   -5.3581    0.7471    0.9205 C   0  0  1  0  0  0  0  0  0  0  0  0
   -0.1190   -2.7747    1.6307 C   0  0  2  0  0  0  0  0  0  0  0  0
   -3.3113    1.0115   -1.0074 C   0  0  1  0  0  0  0  0  0  0  0  0
   -4.0019    0.2567    1.2808 C   0  0  2  0  0  0  0  0  0  0  0  0
    1.2222   -2.7515    0.9414 C   0  0  1  0  0  0  0  0  0  0  0  0
    4.5026    1.6461   -0.9196 C   0  0  2  0  0  0  0  0  0  0  0  0
    3.0378    2.0763   -1.0434 C   0  0  1  0  0  0  0  0  0  0  0  0
    4.4722    0.2311   -0.3649 C   0  0  2  0  0  0  0  0  0  0  0  0
   -3.0698    0.0453    0.1082 C   0  0  2  0  0  0  0  0  0  0  0  0
    1.0772   -2.0314   -0.3605 C   0  0  1  0  0  0  0  0  0  0  0  0
    0.1822   -0.8065   -0.2692 C   0  0  1  0  0  0  0  0  0  0  0  0
    2.2875    0.8568   -1.5380 C   0  0  2  0  0  0  0  0  0  0  0  0
   -1.0637   -1.0607    0.5461 C   0  0  1  0  0  0  0  0  0  0  0  0
    2.2246   -0.1163   -0.3770 C   0  0  0  0  0  0  0  0  0  0  0  0
   -5.0549    2.3161   -2.1328 N   0  0  0  0  0  0  0  0  0  0  0  0
    5.7311   -1.2428    1.1291 N   0  0  0  0  0  0  0  0  0  0  0  0
   -5.4470    2.1457    1.2998 N   0  0  0  0  0  0  0  0  0  0  0  0
    7.0518    1.2723   -1.1607 O   0  0  0  0  0  0  0  0  0  0  0  0
    0.7426   -2.8767    3.8718 O   0  0  0  0  0  0  0  0  0  0  0  0
   -2.4939    0.5898   -2.0835 O   0  0  0  0  0  0  0  0  0  0  0  0
   -4.1582   -1.0046    1.9055 O   0  0  0  0  0  0  0  0  0  0  0  0
    2.2379   -2.2587    1.7366 O   0  0  0  0  0  0  0  0  0  0  0  0
    5.0703    2.5055    0.0198 O   0  0  0  0  0  0  0  0  0  0  0  0
    2.5133    2.4141    0.2014 O   0  0  0  0  0  0  0  0  0  0  0  0
    2.8812    0.2979   -2.6663 O   0  0  0  0  0  0  0  0  0  0  0  0
   -0.6241   -1.4959    1.8174 O   0  0  0  0  0  0  0  0  0  0  0  0
   -1.7851    0.0949    0.6151 O   0  0  0  0  0  0  0  0  0  0  0  0
    3.3263    0.1204    0.4445 O   0  0  0  0  0  0  0  0  0  0  0  0
    2.2717   -1.4259   -0.7717 O   0  0  0  0  0  0  0  0  0  0  0  0
    1.0246    0.1180    0.2890 O   0  0  0  0  0  0  0  0  0  0  0  0
   -6.9654    3.0359    0.1433 H   0  0  0  0  0  0  0  0  0  0  0  0
   -7.5550    1.7676    1.2677 H   0  0  0  0  0  0  0  0  0  0  0  0
   -7.0387    3.3269    1.9428 H   0  0  0  0  0  0  0  0  0  0  0  0
   -6.6830    1.1704   -0.7362 H   0  0  0  0  0  0  0  0  0  0  0  0
   -6.0112   -0.4667   -0.7244 H   0  0  0  0  0  0  0  0  0  0  0  0
    7.8696   -0.1027    0.0659 H   0  0  0  0  0  0  0  0  0  0  0  0
    6.8175   -0.7231   -1.2349 H   0  0  0  0  0  0  0  0  0  0  0  0
   -1.1002   -3.5201    3.3536 H   0  0  0  0  0  0  0  0  0  0  0  0
    0.2216   -4.5614    2.7713 H   0  0  0  0  0  0  0  0  0  0  0  0
   -4.8033    0.3109   -2.3851 H   0  0  0  0  0  0  0  0  0  0  0  0
    5.8229    0.8446    1.2211 H   0  0  0  0  0  0  0  0  0  0  0  0
   -6.1572    0.1826    1.5043 H   0  0  0  0  0  0  0  0  0  0  0  0
   -0.8160   -3.3265    0.9739 H   0  0  0  0  0  0  0  0  0  0  0  0
   -3.0308    2.0244   -0.6751 H   0  0  0  0  0  0  0  0  0  0  0  0
   -3.5099    0.8781    2.0803 H   0  0  0  0  0  0  0  0  0  0  0  0
    1.4770   -3.8190    0.7070 H   0  0  0  0  0  0  0  0  0  0  0  0
    4.9175    1.7242   -1.9237 H   0  0  0  0  0  0  0  0  0  0  0  0
    2.9261    2.9316   -1.7263 H   0  0  0  0  0  0  0  0  0  0  0  0
    4.5035   -0.5467   -1.1519 H   0  0  0  0  0  0  0  0  0  0  0  0
   -3.2538   -0.9860   -0.2713 H   0  0  0  0  0  0  0  0  0  0  0  0
    0.6773   -2.7308   -1.1064 H   0  0  0  0  0  0  0  0  0  0  0  0
   -0.1381   -0.5771   -1.3005 H   0  0  0  0  0  0  0  0  0  0  0  0
    1.2760    1.2156   -1.8388 H   0  0  0  0  0  0  0  0  0  0  0  0
   -1.5697   -1.9187    0.0942 H   0  0  0  0  0  0  0  0  0  0  0  0
   -4.5188    2.3348   -3.0483 H   0  0  0  0  0  0  0  0  0  0  0  0
   -4.6763    3.1317   -1.6072 H   0  0  0  0  0  0  0  0  0  0  0  0
    6.6927   -1.3824    1.5076 H   0  0  0  0  0  0  0  0  0  0  0  0
    5.4872   -2.0139    0.5003 H   0  0  0  0  0  0  0  0  0  0  0  0
   -4.8244    2.7330    0.7380 H   0  0  0  0  0  0  0  0  0  0  0  0
    7.4472    1.1282   -2.0686 H   0  0  0  0  0  0  0  0  0  0  0  0
    0.3908   -2.9700    4.8102 H   0  0  0  0  0  0  0  0  0  0  0  0
   -2.7951   -0.3150   -2.3391 H   0  0  0  0  0  0  0  0  0  0  0  0
   -4.9754   -1.4172    1.5357 H   0  0  0  0  0  0  0  0  0  0  0  0
    3.0773   -2.8116    1.6426 H   0  0  0  0  0  0  0  0  0  0  0  0
    4.7433    3.4212   -0.1092 H   0  0  0  0  0  0  0  0  0  0  0  0
    3.2262    2.4494    0.8984 H   0  0  0  0  0  0  0  0  0  0  0  0
    2.1696   -0.1575   -3.1819 H   0  0  0  0  0  0  0  0  0  0  0  0
  2  5  1  0
  3  6  1  0
  2  7  1  0
  8  4  1  0
  5  9  1  0
  7 10  1  0
  8 11  1  0
 12 13  1  0
 14  6  1  0
 12 14  1  0
  9 15  1  0
 10 15  1  0
 11 16  1  0
 16 17  1  0
 13 18  1  0
 17 19  1  0
 18 20  1  0
  5 21  1  0
  6 22  1  0
  1 23  1  0
  7 23  1  0
  3 24  1  0
  4 25  1  0
  9 26  1  0
 10 27  1  0
 11 28  1  0
 12 29  1  0
 13 30  1  0
 18 31  1  0
  8 32  1  0
 19 32  1  0
 15 33  1  0
 19 33  1  0
 14 34  1  0
 20 34  1  0
 16 35  1  0
 20 35  1  0
 17 36  1  0
 20 36  1  0
  1 37  1  0
  1 38  1  0
  1 39  1  0
  2 40  1  0
  2 41  1  0
  3 42  1  0
  3 43  1  0
  4 44  1  0
  4 45  1  0
  5 46  1  6
  6 47  1  1
  7 48  1  1
  8 49  1  6
  9 50  1  1
 10 51  1  1
 11 52  1  6
 12 53  1  6
 13 54  1  6
 14 55  1  6
 15 56  1  6
 16 57  1  6
 17 58  1  6
 18 59  1  6
 19 60  1  6
 21 61  1  0
 21 62  1  0
 22 63  1  0
 22 64  1  0
 23 65  1  0
 24 66  1  0
 25 67  1  0
 26 68  1  0
 27 69  1  0
 28 70  1  0
 29 71  1  0
 30 72  1  0
 31 73  1  0
M  END

