404770602
     RDKit          3D

 49 52  0  0  1  0  0  0  0  0999 V2000
    3.6805    0.7375   -1.0244 O   0  0  0  0  0  0  0  0  0  0  0  0
   -6.6578   -0.3703   -0.1629 O   0  0  0  0  0  0  0  0  0  0  0  0
    0.6572    0.2975    0.6558 C   0  0  2  0  0  0  0  0  0  0  0  0
    1.3830    0.5926   -0.6546 C   0  0  1  0  0  0  0  0  0  0  0  0
   -0.6897    0.9179    0.5409 C   0  0  1  0  0  0  0  0  0  0  0  0
    2.7425    0.0022   -0.3065 C   0  0  2  0  0  0  0  0  0  0  0  0
   -1.4261   -0.0115   -0.3962 C   0  0  0  0  0  0  0  0  0  0  0  0
    1.5759    0.8007    1.6836 C   0  0  0  0  0  0  0  0  0  0  0  0
    0.6571   -0.1126   -1.7003 C   0  0  0  0  0  0  0  0  0  0  0  0
    2.9310    0.2916    1.1676 C   0  0  0  0  0  0  0  0  0  0  0  0
   -2.6251   -0.4588   -0.2073 C   0  0  0  0  0  0  0  0  0  0  0  0
   -1.3591    1.1989    1.8139 C   0  0  0  0  0  0  0  0  0  0  0  0
   -0.6388   -0.3930   -1.5851 C   0  0  0  0  0  0  0  0  0  0  0  0
    1.5420    2.0594   -0.9217 C   0  0  0  0  0  0  0  0  0  0  0  0
   -3.3342   -0.0268    1.0273 C   0  0  0  0  0  0  0  0  0  0  0  0
    2.8303   -1.4350   -0.6674 C   0  0  0  0  0  0  0  0  0  0  0  0
   -2.4900    0.3135    2.1827 C   0  0  0  0  0  0  0  0  0  0  0  0
   -3.3339   -1.3623   -1.1323 C   0  0  0  0  0  0  0  0  0  0  0  0
   -4.6499    0.0269    1.0415 C   0  0  0  0  0  0  0  0  0  0  0  0
    4.1411   -2.0418   -0.4008 C   0  0  0  0  0  0  0  0  0  0  0  0
   -5.3913   -0.3357   -0.1449 C   0  0  0  0  0  0  0  0  0  0  0  0
   -4.6901   -0.6859   -1.4033 C   0  0  0  0  0  0  0  0  0  0  0  0
    5.1689   -1.4022    0.0895 C   0  0  0  0  0  0  0  0  0  0  0  0
    4.0023    1.5429   -0.5095 H   0  0  0  0  0  0  0  0  0  0  0  0
    0.6048   -0.8075    0.7199 H   0  0  0  0  0  0  0  0  0  0  0  0
   -0.5853    1.8661   -0.0663 H   0  0  0  0  0  0  0  0  0  0  0  0
    1.5710    1.8840    1.8566 H   0  0  0  0  0  0  0  0  0  0  0  0
    1.3911    0.2247    2.6339 H   0  0  0  0  0  0  0  0  0  0  0  0
    1.1368   -0.4384   -2.6130 H   0  0  0  0  0  0  0  0  0  0  0  0
    3.2368   -0.6362    1.7200 H   0  0  0  0  0  0  0  0  0  0  0  0
    3.6318    1.1275    1.3698 H   0  0  0  0  0  0  0  0  0  0  0  0
   -0.6151    1.1565    2.6641 H   0  0  0  0  0  0  0  0  0  0  0  0
   -1.7141    2.2698    1.8396 H   0  0  0  0  0  0  0  0  0  0  0  0
   -1.1380   -0.9132   -2.3833 H   0  0  0  0  0  0  0  0  0  0  0  0
    2.4274    2.1977   -1.6100 H   0  0  0  0  0  0  0  0  0  0  0  0
    0.6926    2.4903   -1.5165 H   0  0  0  0  0  0  0  0  0  0  0  0
    1.7703    2.6498   -0.0158 H   0  0  0  0  0  0  0  0  0  0  0  0
    2.0451   -2.0598   -0.1794 H   0  0  0  0  0  0  0  0  0  0  0  0
    2.6762   -1.5122   -1.7853 H   0  0  0  0  0  0  0  0  0  0  0  0
   -2.1544   -0.5813    2.7453 H   0  0  0  0  0  0  0  0  0  0  0  0
   -3.1413    0.8826    2.9081 H   0  0  0  0  0  0  0  0  0  0  0  0
   -2.8865   -1.5102   -2.0948 H   0  0  0  0  0  0  0  0  0  0  0  0
   -3.5824   -2.3408   -0.6531 H   0  0  0  0  0  0  0  0  0  0  0  0
   -5.1591    0.3405    1.9370 H   0  0  0  0  0  0  0  0  0  0  0  0
    4.2826   -3.1160   -0.6261 H   0  0  0  0  0  0  0  0  0  0  0  0
   -5.3140   -1.3209   -2.0539 H   0  0  0  0  0  0  0  0  0  0  0  0
   -4.4756    0.2857   -1.9194 H   0  0  0  0  0  0  0  0  0  0  0  0
    5.1575   -0.3656    0.3468 H   0  0  0  0  0  0  0  0  0  0  0  0
    6.1163   -1.9187    0.2628 H   0  0  0  0  0  0  0  0  0  0  0  0
  6  1  1  6
  2 21  2  0
  3  4  1  0
  3  5  1  0
  3  8  1  0
  4  6  1  0
  4  9  1  0
  4 14  1  6
  5  7  1  0
  5 12  1  0
  6 10  1  0
  6 16  1  0
  7 11  2  0
  7 13  1  0
  8 10  1  0
  9 13  2  0
 11 15  1  0
 11 18  1  0
 12 17  1  0
 15 17  1  0
 15 19  2  0
 16 20  1  0
 18 22  1  0
 19 21  1  0
 20 23  2  3
 21 22  1  0
  1 24  1  0
  3 25  1  1
  5 26  1  6
  8 27  1  0
  8 28  1  0
  9 29  1  0
 10 30  1  0
 10 31  1  0
 12 32  1  0
 12 33  1  0
 13 34  1  0
 14 35  1  0
 14 36  1  0
 14 37  1  0
 16 38  1  0
 16 39  1  0
 17 40  1  0
 17 41  1  0
 18 42  1  0
 18 43  1  0
 19 44  1  0
 20 45  1  0
 22 46  1  0
 22 47  1  0
 23 48  1  0
 23 49  1  0
M  END

