404772263
     RDKit          3D

 77 81  0  0  1  0  0  0  0  0999 V2000
   -6.1325    2.3217    0.3428 C   0  0  0  0  0  0  0  0  0  0  0  0
   -7.2091    1.5492   -0.3862 C   0  0  0  0  0  0  0  0  0  0  0  0
   -8.5472    2.0417    0.1180 C   0  0  0  0  0  0  0  0  0  0  0  0
   -7.0201    0.1018   -0.1161 C   0  0  0  0  0  0  0  0  0  0  0  0
   -7.9681   -0.4969    0.4745 O   0  0  0  0  0  0  0  0  0  0  0  0
   -5.8572   -0.6094   -0.4828 N   0  0  0  0  0  0  0  0  0  0  0  0
   -4.7628    0.0180   -1.1497 C   0  0  0  0  0  0  0  0  0  0  0  0
   -3.7778   -1.0332   -1.7012 C   0  0  0  0  0  0  0  0  0  0  0  0
   -3.3008   -1.7953   -0.5465 C   0  0  0  0  0  0  0  0  0  0  0  0
   -4.3504   -2.2951    0.2210 C   0  0  0  0  0  0  0  0  0  0  0  0
   -5.7632   -2.0191   -0.1805 C   0  0  0  0  0  0  0  0  0  0  0  0
   -3.7752   -2.9650    1.2267 N   0  0  0  0  0  0  0  0  0  0  0  0
   -2.4131   -2.8878    1.0945 C   0  0  0  0  0  0  0  0  0  0  0  0
   -1.5430   -3.5376    2.0595 C   0  0  0  0  0  0  0  0  0  0  0  0
   -2.1195   -2.1825    0.0256 N   0  0  0  0  0  0  0  0  0  0  0  0
   -0.8615   -1.8187   -0.5498 C   0  0  2  0  0  0  0  0  0  0  0  0
    0.3696   -2.4298   -0.0190 C   0  0  0  0  0  0  0  0  0  0  0  0
    1.2457   -1.4247    0.7496 C   0  0  2  0  0  0  0  0  0  0  0  0
    0.4349   -0.4822    1.6162 C   0  0  0  0  0  0  0  0  0  0  0  0
    0.4579    0.8801    0.8897 C   0  0  0  0  0  0  0  0  0  0  0  0
    0.6202    0.2787   -0.5234 C   0  0  2  0  0  0  0  0  0  0  0  0
   -0.7060   -0.3472   -0.8485 C   0  0  0  0  0  0  0  0  0  0  0  0
    1.6980   -0.5314   -0.2519 N   0  0  0  0  0  0  0  0  0  0  0  0
    2.9677   -0.3868   -0.6407 C   0  0  0  0  0  0  0  0  0  0  0  0
    3.6450    0.8045    0.0038 C   0  0  0  0  0  0  0  0  0  0  0  0
    5.0956    0.9285   -0.4694 C   0  0  2  0  0  0  0  0  0  0  0  0
    5.7923   -0.2832   -0.0967 N   0  0  0  0  0  0  0  0  0  0  0  0
    6.3273   -1.1480   -1.0661 C   0  0  0  0  0  0  0  0  0  0  0  0
    7.0340   -2.3793   -0.6325 C   0  0  0  0  0  0  0  0  0  0  0  0
    6.2046   -0.8750   -2.2800 O   0  0  0  0  0  0  0  0  0  0  0  0
    5.7281    2.1301    0.1264 C   0  0  0  0  0  0  0  0  0  0  0  0
    5.9352    3.2451   -0.6545 C   0  0  0  0  0  0  0  0  0  0  0  0
    6.5176    4.3791   -0.1394 C   0  0  0  0  0  0  0  0  0  0  0  0
    6.9039    4.4120    1.1781 C   0  0  0  0  0  0  0  0  0  0  0  0
    6.7056    3.3087    1.9747 C   0  0  0  0  0  0  0  0  0  0  0  0
    7.1018    3.3890    3.2635 F   0  0  0  0  0  0  0  0  0  0  0  0
    6.1202    2.1762    1.4463 C   0  0  0  0  0  0  0  0  0  0  0  0
   -5.4077    2.6965   -0.3939 H   0  0  0  0  0  0  0  0  0  0  0  0
   -6.5749    3.1690    0.9438 H   0  0  0  0  0  0  0  0  0  0  0  0
   -5.6213    1.6881    1.0932 H   0  0  0  0  0  0  0  0  0  0  0  0
   -7.1772    1.7767   -1.4732 H   0  0  0  0  0  0  0  0  0  0  0  0
   -8.7366    3.0347   -0.3845 H   0  0  0  0  0  0  0  0  0  0  0  0
   -9.3826    1.3620   -0.1501 H   0  0  0  0  0  0  0  0  0  0  0  0
   -8.5389    2.2668    1.2037 H   0  0  0  0  0  0  0  0  0  0  0  0
   -5.0586    0.6438   -2.0111 H   0  0  0  0  0  0  0  0  0  0  0  0
   -4.1361    0.6678   -0.4859 H   0  0  0  0  0  0  0  0  0  0  0  0
   -4.4288   -1.7465   -2.2929 H   0  0  0  0  0  0  0  0  0  0  0  0
   -3.0792   -0.5007   -2.3079 H   0  0  0  0  0  0  0  0  0  0  0  0
   -5.9452   -2.6053   -1.1078 H   0  0  0  0  0  0  0  0  0  0  0  0
   -6.4172   -2.3150    0.6597 H   0  0  0  0  0  0  0  0  0  0  0  0
   -0.7227   -2.9388    2.4854 H   0  0  0  0  0  0  0  0  0  0  0  0
   -1.2265   -4.5854    1.7627 H   0  0  0  0  0  0  0  0  0  0  0  0
   -2.1149   -3.8033    3.0193 H   0  0  0  0  0  0  0  0  0  0  0  0
   -0.9561   -2.2743   -1.6071 H   0  0  0  0  0  0  0  0  0  0  0  0
    0.3084   -3.4023    0.4452 H   0  0  0  0  0  0  0  0  0  0  0  0
    1.0764   -2.6812   -0.8964 H   0  0  0  0  0  0  0  0  0  0  0  0
    2.0423   -1.9376    1.2879 H   0  0  0  0  0  0  0  0  0  0  0  0
   -0.6454   -0.7118    1.6421 H   0  0  0  0  0  0  0  0  0  0  0  0
    0.8717   -0.3768    2.6301 H   0  0  0  0  0  0  0  0  0  0  0  0
    1.3228    1.4685    1.1909 H   0  0  0  0  0  0  0  0  0  0  0  0
   -0.4870    1.4155    0.9578 H   0  0  0  0  0  0  0  0  0  0  0  0
    0.9049    1.0978   -1.2041 H   0  0  0  0  0  0  0  0  0  0  0  0
   -1.5398    0.1822   -0.3433 H   0  0  0  0  0  0  0  0  0  0  0  0
   -0.8133   -0.1071   -1.9512 H   0  0  0  0  0  0  0  0  0  0  0  0
    3.5950   -1.2745   -0.3789 H   0  0  0  0  0  0  0  0  0  0  0  0
    3.1016   -0.2629   -1.7428 H   0  0  0  0  0  0  0  0  0  0  0  0
    3.6169    0.7776    1.1056 H   0  0  0  0  0  0  0  0  0  0  0  0
    3.1688    1.7665   -0.3041 H   0  0  0  0  0  0  0  0  0  0  0  0
    5.0736    0.9978   -1.5585 H   0  0  0  0  0  0  0  0  0  0  0  0
    5.8761   -0.4799    0.9329 H   0  0  0  0  0  0  0  0  0  0  0  0
    7.0193   -3.1684   -1.4180 H   0  0  0  0  0  0  0  0  0  0  0  0
    8.0682   -2.1544   -0.3361 H   0  0  0  0  0  0  0  0  0  0  0  0
    6.5242   -2.8368    0.2558 H   0  0  0  0  0  0  0  0  0  0  0  0
    5.6386    3.2502   -1.7057 H   0  0  0  0  0  0  0  0  0  0  0  0
    6.6657    5.2332   -0.7727 H   0  0  0  0  0  0  0  0  0  0  0  0
    7.3681    5.3281    1.5729 H   0  0  0  0  0  0  0  0  0  0  0  0
    5.9700    1.3033    2.1002 H   0  0  0  0  0  0  0  0  0  0  0  0
  1  2  1  0
  2  3  1  0
  2  4  1  0
  4  5  2  0
  4  6  1  0
  6  7  1  0
  7  8  1  0
  8  9  1  0
  9 10  2  0
 10 11  1  0
  6 11  1  0
 10 12  1  0
 12 13  2  0
 13 14  1  0
 13 15  1  0
  9 15  1  0
 16 15  1  0
 16 17  1  0
 17 18  1  0
 18 19  1  0
 19 20  1  0
 20 21  1  0
 21 22  1  0
 16 22  1  0
 21 23  1  0
 18 23  1  0
 23 24  1  0
 24 25  1  0
 25 26  1  0
 26 27  1  0
 27 28  1  0
 28 29  1  0
 28 30  2  0
 26 31  1  0
 31 32  2  0
 32 33  1  0
 33 34  2  0
 34 35  1  0
 35 36  1  0
 35 37  2  0
 31 37  1  0
  1 38  1  0
  1 39  1  0
  1 40  1  0
  2 41  1  0
  3 42  1  0
  3 43  1  0
  3 44  1  0
  7 45  1  0
  7 46  1  0
  8 47  1  0
  8 48  1  0
 11 49  1  0
 11 50  1  0
 14 51  1  0
 14 52  1  0
 14 53  1  0
 16 54  1  6
 17 55  1  0
 17 56  1  0
 18 57  1  1
 19 58  1  0
 19 59  1  0
 20 60  1  0
 20 61  1  0
 21 62  1  6
 22 63  1  0
 22 64  1  0
 24 65  1  0
 24 66  1  0
 25 67  1  0
 25 68  1  0
 26 69  1  6
 27 70  1  0
 29 71  1  0
 29 72  1  0
 29 73  1  0
 32 74  1  0
 33 75  1  0
 34 76  1  0
 37 77  1  0
M  END

