404770564
     RDKit          3D

 99104  0  0  0  0  0  0  0  0999 V2000
    1.1581   -0.1849    0.3773 C   0  0  0  0  0  0  0  0  0  0  0  0
    2.3600    0.2220    0.9615 C   0  0  0  0  0  0  0  0  0  0  0  0
    3.5463   -0.0347    0.2955 C   0  0  0  0  0  0  0  0  0  0  0  0
    3.6090   -0.6736   -0.9223 C   0  0  0  0  0  0  0  0  0  0  0  0
    2.3899   -1.0536   -1.4546 C   0  0  0  0  0  0  0  0  0  0  0  0
    1.1758   -0.8235   -0.8341 C   0  0  0  0  0  0  0  0  0  0  0  0
   -0.0353   -1.2723   -1.5272 C   0  0  0  0  0  0  0  0  0  0  0  0
   -1.3018   -1.0867   -0.8068 C   0  0  0  0  0  0  0  0  0  0  0  0
   -2.1546   -0.0619   -1.1604 C   0  0  0  0  0  0  0  0  0  0  0  0
   -3.3829    0.1200   -0.5183 C   0  0  0  0  0  0  0  0  0  0  0  0
   -3.6969   -0.7616    0.4763 C   0  0  0  0  0  0  0  0  0  0  0  0
   -2.8703   -1.8221    0.8803 C   0  0  0  0  0  0  0  0  0  0  0  0
   -1.6723   -1.9437    0.2034 C   0  0  0  0  0  0  0  0  0  0  0  0
    2.3176    0.8733    2.2214 N   0  0  0  0  0  0  0  0  0  0  0  0
   -3.3116   -2.7082    1.9007 N   0  0  0  0  0  0  0  0  0  0  0  0
    2.1397    2.1707    2.3749 N   0  0  0  0  0  0  0  0  0  0  0  0
    2.1490    2.4707    3.6879 C   0  0  0  0  0  0  0  0  0  0  0  0
    2.3458    1.2832    4.3610 C   0  0  0  0  0  0  0  0  0  0  0  0
    2.4448    0.3175    3.4214 N   0  0  0  0  0  0  0  0  0  0  0  0
   -4.3524   -3.5221    1.6403 N   0  0  0  0  0  0  0  0  0  0  0  0
   -4.6462   -4.2792    2.6788 C   0  0  0  0  0  0  0  0  0  0  0  0
   -3.7429   -3.9351    3.6728 C   0  0  0  0  0  0  0  0  0  0  0  0
   -2.9576   -2.9634    3.1181 N   0  0  0  0  0  0  0  0  0  0  0  0
   -3.8320   -4.5820    4.8625 C   0  0  0  0  0  0  0  0  0  0  0  0
   -4.8130   -5.5634    5.0618 C   0  0  0  0  0  0  0  0  0  0  0  0
   -5.7045   -5.8900    4.0519 C   0  0  0  0  0  0  0  0  0  0  0  0
   -5.6192   -5.2366    2.8409 C   0  0  0  0  0  0  0  0  0  0  0  0
    2.0067    3.6611    4.3856 C   0  0  0  0  0  0  0  0  0  0  0  0
    2.0577    3.6898    5.7682 C   0  0  0  0  0  0  0  0  0  0  0  0
    2.2557    2.5012    6.4524 C   0  0  0  0  0  0  0  0  0  0  0  0
    2.3943    1.3314    5.7321 C   0  0  0  0  0  0  0  0  0  0  0  0
   -0.8396   -2.9910    0.5980 O   0  0  0  0  0  0  0  0  0  0  0  0
   -0.0404    0.0674    1.0395 O   0  0  0  0  0  0  0  0  0  0  0  0
   -4.2986    1.2428   -0.9566 C   0  0  0  0  0  0  0  0  0  0  0  0
    4.9089   -0.9545   -1.6042 C   0  0  0  0  0  0  0  0  0  0  0  0
    5.9903   -0.3561   -0.7495 C   0  0  0  0  0  0  0  0  0  0  0  0
    5.0692   -2.4803   -1.4598 C   0  0  0  0  0  0  0  0  0  0  0  0
   -3.6359    2.4977   -0.6411 C   0  0  0  0  0  0  0  0  0  0  0  0
   -4.4596    0.9954   -2.4679 C   0  0  0  0  0  0  0  0  0  0  0  0
   -5.6347    0.9685   -0.3593 C   0  0  0  0  0  0  0  0  0  0  0  0
   -4.2298    3.8039   -0.9485 C   0  0  0  0  0  0  0  0  0  0  0  0
   -5.5526    4.1256   -0.3230 C   0  0  0  0  0  0  0  0  0  0  0  0
   -4.1870    4.1867   -2.4160 C   0  0  0  0  0  0  0  0  0  0  0  0
   -3.2724    4.8491   -0.3089 C   0  0  0  0  0  0  0  0  0  0  0  0
    4.8243   -0.5152   -2.9917 C   0  0  0  0  0  0  0  0  0  0  0  0
    5.9596   -0.6855   -3.9231 C   0  0  0  0  0  0  0  0  0  0  0  0
    7.2461   -0.0088   -3.5611 C   0  0  0  0  0  0  0  0  0  0  0  0
    6.1767   -2.1283   -4.3405 C   0  0  0  0  0  0  0  0  0  0  0  0
    5.4919    0.0215   -5.2177 C   0  0  0  0  0  0  0  0  0  0  0  0
    4.4404    0.3073    0.7953 H   0  0  0  0  0  0  0  0  0  0  0  0
    2.3761   -1.5528   -2.3883 H   0  0  0  0  0  0  0  0  0  0  0  0
   -0.0626   -0.7678   -2.5385 H   0  0  0  0  0  0  0  0  0  0  0  0
    0.1428   -2.3499   -1.7892 H   0  0  0  0  0  0  0  0  0  0  0  0
   -1.9160    0.6357   -1.9360 H   0  0  0  0  0  0  0  0  0  0  0  0
   -4.6239   -0.6622    1.0018 H   0  0  0  0  0  0  0  0  0  0  0  0
   -3.1309   -4.3188    5.6408 H   0  0  0  0  0  0  0  0  0  0  0  0
   -4.8910   -6.0738    5.9876 H   0  0  0  0  0  0  0  0  0  0  0  0
   -6.4871   -6.6569    4.1798 H   0  0  0  0  0  0  0  0  0  0  0  0
   -6.3013   -5.4628    2.0192 H   0  0  0  0  0  0  0  0  0  0  0  0
    1.8557    4.5916    3.8685 H   0  0  0  0  0  0  0  0  0  0  0  0
    1.9422    4.6421    6.2969 H   0  0  0  0  0  0  0  0  0  0  0  0
    2.2938    2.5132    7.5374 H   0  0  0  0  0  0  0  0  0  0  0  0
    2.5502    0.3983    6.2860 H   0  0  0  0  0  0  0  0  0  0  0  0
   -1.0326   -3.6446    1.3117 H   0  0  0  0  0  0  0  0  0  0  0  0
   -0.0670    0.5319    1.9322 H   0  0  0  0  0  0  0  0  0  0  0  0
    7.0154   -0.5558   -1.0645 H   0  0  0  0  0  0  0  0  0  0  0  0
    5.8985    0.7065   -0.5457 H   0  0  0  0  0  0  0  0  0  0  0  0
    5.9140   -0.8835    0.2549 H   0  0  0  0  0  0  0  0  0  0  0  0
    6.0712   -2.8198   -1.7419 H   0  0  0  0  0  0  0  0  0  0  0  0
    4.2299   -3.0266   -1.9067 H   0  0  0  0  0  0  0  0  0  0  0  0
    5.0129   -2.6914   -0.3517 H   0  0  0  0  0  0  0  0  0  0  0  0
   -3.3850    2.4911    0.4589 H   0  0  0  0  0  0  0  0  0  0  0  0
   -2.6156    2.4705   -1.1208 H   0  0  0  0  0  0  0  0  0  0  0  0
   -4.5920   -0.1090   -2.6669 H   0  0  0  0  0  0  0  0  0  0  0  0
   -3.5680    1.2907   -3.0181 H   0  0  0  0  0  0  0  0  0  0  0  0
   -5.4123    1.4285   -2.8477 H   0  0  0  0  0  0  0  0  0  0  0  0
   -5.7007    1.0973    0.7373 H   0  0  0  0  0  0  0  0  0  0  0  0
   -5.8319   -0.1460   -0.5210 H   0  0  0  0  0  0  0  0  0  0  0  0
   -6.4895    1.4163   -0.9165 H   0  0  0  0  0  0  0  0  0  0  0  0
   -5.7153    5.2313   -0.2417 H   0  0  0  0  0  0  0  0  0  0  0  0
   -5.7175    3.7023    0.6568 H   0  0  0  0  0  0  0  0  0  0  0  0
   -6.3581    3.7708   -1.0110 H   0  0  0  0  0  0  0  0  0  0  0  0
   -4.3337    5.3008   -2.4361 H   0  0  0  0  0  0  0  0  0  0  0  0
   -4.9606    3.7686   -3.0333 H   0  0  0  0  0  0  0  0  0  0  0  0
   -3.1543    4.0290   -2.7803 H   0  0  0  0  0  0  0  0  0  0  0  0
   -3.4687    4.8455    0.7618 H   0  0  0  0  0  0  0  0  0  0  0  0
   -2.2412    4.6397   -0.6121 H   0  0  0  0  0  0  0  0  0  0  0  0
   -3.6268    5.8291   -0.7202 H   0  0  0  0  0  0  0  0  0  0  0  0
    3.9555   -1.0598   -3.4742 H   0  0  0  0  0  0  0  0  0  0  0  0
    4.5087    0.5529   -3.0307 H   0  0  0  0  0  0  0  0  0  0  0  0
    7.9753   -0.7663   -3.1794 H   0  0  0  0  0  0  0  0  0  0  0  0
    7.1497    0.8848   -2.9280 H   0  0  0  0  0  0  0  0  0  0  0  0
    7.7792    0.3820   -4.4885 H   0  0  0  0  0  0  0  0  0  0  0  0
    7.0655   -2.5927   -3.8954 H   0  0  0  0  0  0  0  0  0  0  0  0
    5.2336   -2.6528   -4.1953 H   0  0  0  0  0  0  0  0  0  0  0  0
    6.3746   -2.1527   -5.4468 H   0  0  0  0  0  0  0  0  0  0  0  0
    6.3419    0.1085   -5.9178 H   0  0  0  0  0  0  0  0  0  0  0  0
    5.1572    1.0374   -4.9182 H   0  0  0  0  0  0  0  0  0  0  0  0
    4.6259   -0.5386   -5.6368 H   0  0  0  0  0  0  0  0  0  0  0  0
  1  2  2  0
  1  6  1  0
  2  3  1  0
  3  4  2  0
  4  5  1  0
  5  6  2  0
  6  7  1  0
  7  8  1  0
  8  9  2  0
  8 13  1  0
  9 10  1  0
 10 11  2  0
 11 12  1  0
 12 13  2  0
  2 14  1  0
 12 15  1  0
 14 16  1  0
 14 19  1  0
 16 17  2  0
 18 19  2  0
 15 20  1  0
 15 23  1  0
 20 21  2  0
 22 23  2  0
 21 27  1  0
 21 22  1  0
 22 24  1  0
 24 25  2  0
 25 26  1  0
 26 27  2  0
 17 28  1  0
 17 18  1  0
 18 31  1  0
 28 29  2  0
 29 30  1  0
 30 31  2  0
 13 32  1  0
  1 33  1  0
 10 34  1  0
  4 35  1  0
 35 36  1  0
 35 37  1  0
 34 38  1  0
 34 39  1  0
 34 40  1  0
 38 41  1  0
 41 42  1  0
 41 43  1  0
 41 44  1  0
 35 45  1  0
 45 46  1  0
 46 47  1  0
 46 48  1  0
 46 49  1  0
  3 50  1  0
  5 51  1  0
  7 52  1  0
  7 53  1  0
  9 54  1  0
 11 55  1  0
 24 56  1  0
 25 57  1  0
 26 58  1  0
 27 59  1  0
 28 60  1  0
 29 61  1  0
 30 62  1  0
 31 63  1  0
 32 64  1  0
 33 65  1  0
 36 66  1  0
 36 67  1  0
 36 68  1  0
 37 69  1  0
 37 70  1  0
 37 71  1  0
 38 72  1  0
 38 73  1  0
 39 74  1  0
 39 75  1  0
 39 76  1  0
 40 77  1  0
 40 78  1  0
 40 79  1  0
 42 80  1  0
 42 81  1  0
 42 82  1  0
 43 83  1  0
 43 84  1  0
 43 85  1  0
 44 86  1  0
 44 87  1  0
 44 88  1  0
 45 89  1  0
 45 90  1  0
 47 91  1  0
 47 92  1  0
 47 93  1  0
 48 94  1  0
 48 95  1  0
 48 96  1  0
 49 97  1  0
 49 98  1  0
 49 99  1  0
M  END

