404771605
     RDKit          3D

 91 95  0  0  1  0  0  0  0  0999 V2000
   -8.7284   -2.0164    1.5089 C   0  0  0  0  0  0  0  0  0  0  0  0
    8.1606   -4.8471   -3.4795 C   0  0  0  0  0  0  0  0  0  0  0  0
   -3.0822   -0.2812   -4.9132 C   0  0  0  0  0  0  0  0  0  0  0  0
   -6.4642   -0.0591   -2.4092 C   0  0  0  0  0  0  0  0  0  0  0  0
   -5.3350   -0.1397   -3.1980 C   0  0  0  0  0  0  0  0  0  0  0  0
   -4.1136    1.9041    0.7271 C   0  0  0  0  0  0  0  0  0  0  0  0
   -5.4797    1.5829    1.1848 C   0  0  0  0  0  0  0  0  0  0  0  0
   -5.0575   -2.1388    1.3186 C   0  0  0  0  0  0  0  0  0  0  0  0
   -6.4428   -2.5688    1.5231 C   0  0  0  0  0  0  0  0  0  0  0  0
    8.8502   -3.2903   -1.9432 C   0  0  0  0  0  0  0  0  0  0  0  0
    8.3600   -2.0499   -1.1750 C   0  0  0  0  0  0  0  0  0  0  0  0
    9.0035   -0.4613    0.3159 C   0  0  0  0  0  0  0  0  0  0  0  0
    7.8591   -0.7163    1.2435 C   0  0  0  0  0  0  0  0  0  0  0  0
    7.0845    1.4861    1.2213 C   0  0  0  0  0  0  0  0  0  0  0  0
    5.8515    1.2324    0.3832 C   0  0  0  0  0  0  0  0  0  0  0  0
    4.4695    1.8212    2.1501 C   0  0  0  0  0  0  0  0  0  0  0  0
    4.0318    3.1391    1.5114 C   0  0  0  0  0  0  0  0  0  0  0  0
    2.3761    3.9070    0.0709 C   0  0  0  0  0  0  0  0  0  0  0  0
    1.1782    3.4436   -0.7065 C   0  0  0  0  0  0  0  0  0  0  0  0
    0.4648    1.8558    0.8785 C   0  0  0  0  0  0  0  0  0  0  0  0
   -0.8704    1.5348    1.5984 C   0  0  0  0  0  0  0  0  0  0  0  0
   -7.5355   -0.1392   -0.1043 C   0  0  0  0  0  0  0  0  0  0  0  0
   -6.3761   -0.2473   -1.0256 C   0  0  0  0  0  0  0  0  0  0  0  0
   -4.0537   -0.4059   -2.6951 C   0  0  0  0  0  0  0  0  0  0  0  0
   -3.0294    0.9642    1.1709 C   0  0  1  0  0  0  0  0  0  0  0  0
   -7.1119   -0.2579    1.3218 C   0  0  2  0  0  0  0  0  0  0  0  0
   -5.1131   -0.5053   -0.5826 C   0  0  0  0  0  0  0  0  0  0  0  0
   -3.9717   -0.5899   -1.3330 C   0  0  0  0  0  0  0  0  0  0  0  0
   -3.3328   -0.4587    0.8660 C   0  0  1  0  0  0  0  0  0  0  0  0
   -4.8100   -0.7518    0.8528 C   0  0  2  0  0  0  0  0  0  0  0  0
   -5.6963    0.1807    1.6064 C   0  0  1  0  0  0  0  0  0  0  0  0
   -7.4067   -1.5651    1.8045 N   0  0  0  0  0  0  0  0  0  0  0  0
   -5.4571    0.0049    2.9687 O   0  0  0  0  0  0  0  0  0  0  0  0
    7.7846   -3.7143   -2.7302 O   0  0  0  0  0  0  0  0  0  0  0  0
   -2.9437   -0.4785   -3.5185 O   0  0  0  0  0  0  0  0  0  0  0  0
    9.3660   -1.5811   -0.3799 O   0  0  0  0  0  0  0  0  0  0  0  0
    7.5012    0.4120    1.9515 O   0  0  0  0  0  0  0  0  0  0  0  0
    4.8006    0.8715    1.2194 O   0  0  0  0  0  0  0  0  0  0  0  0
    2.9307    2.8572    0.7404 O   0  0  0  0  0  0  0  0  0  0  0  0
    0.2233    2.9299    0.1042 O   0  0  0  0  0  0  0  0  0  0  0  0
   -1.7927    1.2722    0.6148 O   0  0  0  0  0  0  0  0  0  0  0  0
   -2.8895   -0.8635   -0.4605 O   0  0  0  0  0  0  0  0  0  0  0  0
   -9.4318   -1.1907    1.3571 H   0  0  0  0  0  0  0  0  0  0  0  0
   -9.1020   -2.5705    2.4197 H   0  0  0  0  0  0  0  0  0  0  0  0
   -8.7680   -2.7863    0.6911 H   0  0  0  0  0  0  0  0  0  0  0  0
    8.4585   -5.6802   -2.8113 H   0  0  0  0  0  0  0  0  0  0  0  0
    7.3187   -5.1883   -4.0900 H   0  0  0  0  0  0  0  0  0  0  0  0
    9.0103   -4.4917   -4.1133 H   0  0  0  0  0  0  0  0  0  0  0  0
   -2.1516   -0.5223   -5.4587 H   0  0  0  0  0  0  0  0  0  0  0  0
   -3.8361   -1.0138   -5.2722 H   0  0  0  0  0  0  0  0  0  0  0  0
   -3.4647    0.7291   -5.1634 H   0  0  0  0  0  0  0  0  0  0  0  0
   -7.4375    0.1470   -2.8250 H   0  0  0  0  0  0  0  0  0  0  0  0
   -5.4053    0.0066   -4.2756 H   0  0  0  0  0  0  0  0  0  0  0  0
   -3.8019    2.9322    1.0755 H   0  0  0  0  0  0  0  0  0  0  0  0
   -4.0616    1.9511   -0.3820 H   0  0  0  0  0  0  0  0  0  0  0  0
   -5.7539    2.2380    2.0587 H   0  0  0  0  0  0  0  0  0  0  0  0
   -6.1837    1.7995    0.3480 H   0  0  0  0  0  0  0  0  0  0  0  0
   -4.5211   -2.8585    0.6286 H   0  0  0  0  0  0  0  0  0  0  0  0
   -4.4799   -2.2547    2.2851 H   0  0  0  0  0  0  0  0  0  0  0  0
   -6.4699   -3.2992    2.3858 H   0  0  0  0  0  0  0  0  0  0  0  0
   -6.7880   -3.1632    0.6472 H   0  0  0  0  0  0  0  0  0  0  0  0
    9.7368   -3.0708   -2.5389 H   0  0  0  0  0  0  0  0  0  0  0  0
    9.1258   -4.0512   -1.1690 H   0  0  0  0  0  0  0  0  0  0  0  0
    8.0544   -1.2757   -1.9291 H   0  0  0  0  0  0  0  0  0  0  0  0
    7.4429   -2.3830   -0.6631 H   0  0  0  0  0  0  0  0  0  0  0  0
    8.7911    0.3318   -0.4410 H   0  0  0  0  0  0  0  0  0  0  0  0
    9.8396   -0.0468    0.9251 H   0  0  0  0  0  0  0  0  0  0  0  0
    6.9542   -1.1143    0.7654 H   0  0  0  0  0  0  0  0  0  0  0  0
    8.2030   -1.4978    1.9633 H   0  0  0  0  0  0  0  0  0  0  0  0
    6.8835    2.3133    1.9597 H   0  0  0  0  0  0  0  0  0  0  0  0
    7.9023    1.8158    0.5514 H   0  0  0  0  0  0  0  0  0  0  0  0
    6.0543    0.3678   -0.2777 H   0  0  0  0  0  0  0  0  0  0  0  0
    5.6287    2.0859   -0.2566 H   0  0  0  0  0  0  0  0  0  0  0  0
    5.1642    1.9762    2.9711 H   0  0  0  0  0  0  0  0  0  0  0  0
    3.5228    1.4377    2.6416 H   0  0  0  0  0  0  0  0  0  0  0  0
    3.7826    3.8220    2.3492 H   0  0  0  0  0  0  0  0  0  0  0  0
    4.8603    3.6168    0.9610 H   0  0  0  0  0  0  0  0  0  0  0  0
    2.1214    4.7684    0.7278 H   0  0  0  0  0  0  0  0  0  0  0  0
    3.1343    4.2277   -0.7028 H   0  0  0  0  0  0  0  0  0  0  0  0
    0.7898    4.2746   -1.3538 H   0  0  0  0  0  0  0  0  0  0  0  0
    1.5270    2.6179   -1.4002 H   0  0  0  0  0  0  0  0  0  0  0  0
    1.1652    1.9898    1.7346 H   0  0  0  0  0  0  0  0  0  0  0  0
    0.8053    0.9886    0.3074 H   0  0  0  0  0  0  0  0  0  0  0  0
   -1.1677    2.3906    2.2269 H   0  0  0  0  0  0  0  0  0  0  0  0
   -0.7694    0.6549    2.2457 H   0  0  0  0  0  0  0  0  0  0  0  0
   -8.0523    0.8591   -0.2434 H   0  0  0  0  0  0  0  0  0  0  0  0
   -8.3260   -0.8826   -0.3621 H   0  0  0  0  0  0  0  0  0  0  0  0
   -2.9327    1.0255    2.2975 H   0  0  0  0  0  0  0  0  0  0  0  0
   -7.7598    0.4471    1.9211 H   0  0  0  0  0  0  0  0  0  0  0  0
   -2.7928   -1.1147    1.5647 H   0  0  0  0  0  0  0  0  0  0  0  0
   -6.0213    0.6240    3.5157 H   0  0  0  0  0  0  0  0  0  0  0  0
  4  5  2  0
  6  7  1  0
  8  9  1  0
 10 11  1  0
 12 13  1  0
 14 15  1  0
 16 17  1  0
 18 19  1  0
 20 21  1  0
  4 23  1  0
 22 23  1  0
  5 24  1  0
  6 25  1  0
 22 26  1  0
 23 27  2  0
 24 28  2  0
 27 28  1  0
 25 29  1  0
 30  8  1  1
 30 27  1  0
 29 30  1  0
  7 31  1  0
 26 31  1  0
 30 31  1  0
  1 32  1  0
  9 32  1  0
 26 32  1  0
 31 33  1  1
  2 34  1  0
 10 34  1  0
  3 35  1  0
 24 35  1  0
 11 36  1  0
 12 36  1  0
 13 37  1  0
 14 37  1  0
 15 38  1  0
 16 38  1  0
 17 39  1  0
 18 39  1  0
 19 40  1  0
 20 40  1  0
 21 41  1  0
 25 41  1  0
 28 42  1  0
 29 42  1  0
  1 43  1  0
  1 44  1  0
  1 45  1  0
  2 46  1  0
  2 47  1  0
  2 48  1  0
  3 49  1  0
  3 50  1  0
  3 51  1  0
  4 52  1  0
  5 53  1  0
  6 54  1  0
  6 55  1  0
  7 56  1  0
  7 57  1  0
  8 58  1  0
  8 59  1  0
  9 60  1  0
  9 61  1  0
 10 62  1  0
 10 63  1  0
 11 64  1  0
 11 65  1  0
 12 66  1  0
 12 67  1  0
 13 68  1  0
 13 69  1  0
 14 70  1  0
 14 71  1  0
 15 72  1  0
 15 73  1  0
 16 74  1  0
 16 75  1  0
 17 76  1  0
 17 77  1  0
 18 78  1  0
 18 79  1  0
 19 80  1  0
 19 81  1  0
 20 82  1  0
 20 83  1  0
 21 84  1  0
 21 85  1  0
 22 86  1  0
 22 87  1  0
 25 88  1  1
 26 89  1  1
 29 90  1  1
 33 91  1  0
M  END

