404771010
     RDKit          3D

 51 54  0  0  1  0  0  0  0  0999 V2000
    5.6293   -0.3452   -0.2791 C   0  0  0  0  0  0  0  0  0  0  0  0
    4.6358   -0.2509    0.8279 C   0  0  0  0  0  0  0  0  0  0  0  0
    3.2933   -0.0658    0.4833 N   0  0  0  0  0  0  0  0  0  0  0  0
    2.6060   -1.1308   -0.1710 C   0  0  2  0  0  0  0  0  0  0  0  0
    2.5712   -0.7811   -1.6658 C   0  0  0  0  0  0  0  0  0  0  0  0
    2.9561    0.6565   -1.7408 C   0  0  0  0  0  0  0  0  0  0  0  0
    2.9043    1.0689   -0.2636 C   0  0  1  0  0  0  0  0  0  0  0  0
    1.4783    1.3884    0.0484 C   0  0  0  0  0  0  0  0  0  0  0  0
    0.6108    0.2891    0.4670 C   0  0  2  0  0  0  0  0  0  0  0  0
    1.1945   -1.0979    0.3952 C   0  0  0  0  0  0  0  0  0  0  0  0
   -0.6096    0.2114   -0.2264 O   0  0  0  0  0  0  0  0  0  0  0  0
   -1.7080    0.2246    0.6296 C   0  0  0  0  0  0  0  0  0  0  0  0
   -2.4281   -1.0880    0.5511 C   0  0  0  0  0  0  0  0  0  0  0  0
   -2.7631   -1.6680   -0.6374 C   0  0  0  0  0  0  0  0  0  0  0  0
   -3.4080   -2.8766   -0.6470 C   0  0  0  0  0  0  0  0  0  0  0  0
   -3.7427   -3.5487    0.5261 C   0  0  0  0  0  0  0  0  0  0  0  0
   -3.4031   -2.9582    1.7223 C   0  0  0  0  0  0  0  0  0  0  0  0
   -2.7518   -1.7385    1.7186 C   0  0  0  0  0  0  0  0  0  0  0  0
   -2.5802    1.3450    0.2713 C   0  0  0  0  0  0  0  0  0  0  0  0
   -3.9484    1.1333    0.1423 C   0  0  0  0  0  0  0  0  0  0  0  0
   -4.7367    2.2003   -0.1866 C   0  0  0  0  0  0  0  0  0  0  0  0
   -4.2464    3.4641   -0.3945 C   0  0  0  0  0  0  0  0  0  0  0  0
   -2.8817    3.6292   -0.2567 C   0  0  0  0  0  0  0  0  0  0  0  0
   -2.0452    2.5849    0.0731 C   0  0  0  0  0  0  0  0  0  0  0  0
    5.8877    0.6156   -0.7589 H   0  0  0  0  0  0  0  0  0  0  0  0
    5.3826   -1.1393   -1.0142 H   0  0  0  0  0  0  0  0  0  0  0  0
    6.5929   -0.6999    0.1986 H   0  0  0  0  0  0  0  0  0  0  0  0
    4.9510    0.6039    1.4890 H   0  0  0  0  0  0  0  0  0  0  0  0
    4.7442   -1.1567    1.4678 H   0  0  0  0  0  0  0  0  0  0  0  0
    3.0244   -2.1240    0.0159 H   0  0  0  0  0  0  0  0  0  0  0  0
    3.3130   -1.3954   -2.1995 H   0  0  0  0  0  0  0  0  0  0  0  0
    1.5568   -0.9910   -2.0838 H   0  0  0  0  0  0  0  0  0  0  0  0
    2.1952    1.2055   -2.3255 H   0  0  0  0  0  0  0  0  0  0  0  0
    3.9590    0.8324   -2.1724 H   0  0  0  0  0  0  0  0  0  0  0  0
    3.5134    1.9719   -0.1179 H   0  0  0  0  0  0  0  0  0  0  0  0
    1.4841    2.2449    0.7860 H   0  0  0  0  0  0  0  0  0  0  0  0
    1.0491    1.8620   -0.8826 H   0  0  0  0  0  0  0  0  0  0  0  0
    0.3303    0.4175    1.5505 H   0  0  0  0  0  0  0  0  0  0  0  0
    1.2501   -1.5867    1.3884 H   0  0  0  0  0  0  0  0  0  0  0  0
    0.5906   -1.7960   -0.2283 H   0  0  0  0  0  0  0  0  0  0  0  0
   -1.3741    0.3391    1.6735 H   0  0  0  0  0  0  0  0  0  0  0  0
   -2.5094   -1.1530   -1.5504 H   0  0  0  0  0  0  0  0  0  0  0  0
   -3.6983   -3.3822   -1.5816 H   0  0  0  0  0  0  0  0  0  0  0  0
   -4.2505   -4.4976    0.5187 H   0  0  0  0  0  0  0  0  0  0  0  0
   -3.6443   -3.4499    2.6592 H   0  0  0  0  0  0  0  0  0  0  0  0
   -2.4876   -1.2781    2.6755 H   0  0  0  0  0  0  0  0  0  0  0  0
   -4.3184    0.1279    0.3087 H   0  0  0  0  0  0  0  0  0  0  0  0
   -5.8166    2.0246   -0.2857 H   0  0  0  0  0  0  0  0  0  0  0  0
   -4.8882    4.3099   -0.6601 H   0  0  0  0  0  0  0  0  0  0  0  0
   -2.4694    4.6245   -0.4170 H   0  0  0  0  0  0  0  0  0  0  0  0
   -0.9941    2.8239    0.1592 H   0  0  0  0  0  0  0  0  0  0  0  0
  1  2  1  0
  2  3  1  0
  4  3  1  0
  4  5  1  0
  5  6  1  0
  6  7  1  0
  7  3  1  0
  7  8  1  0
  8  9  1  0
  9 10  1  0
  4 10  1  0
  9 11  1  0
 11 12  1  0
 12 13  1  0
 13 14  2  0
 14 15  1  0
 15 16  2  0
 16 17  1  0
 17 18  2  0
 13 18  1  0
 12 19  1  0
 19 20  2  0
 20 21  1  0
 21 22  2  0
 22 23  1  0
 23 24  2  0
 19 24  1  0
  1 25  1  0
  1 26  1  0
  1 27  1  0
  2 28  1  0
  2 29  1  0
  4 30  1  6
  5 31  1  0
  5 32  1  0
  6 33  1  0
  6 34  1  0
  7 35  1  6
  8 36  1  0
  8 37  1  0
  9 38  1  1
 10 39  1  0
 10 40  1  0
 12 41  1  0
 14 42  1  0
 15 43  1  0
 16 44  1  0
 17 45  1  0
 18 46  1  0
 20 47  1  0
 21 48  1  0
 22 49  1  0
 23 50  1  0
 24 51  1  0
M  END

