404772808
     RDKit          3D

 86 87  0  0  0  0  0  0  0  0999 V2000
   11.3706    3.1875    1.2256 C   0  0  0  0  0  0  0  0  0  0  0  0
   10.2216    2.4686    0.5682 C   0  0  0  0  0  0  0  0  0  0  0  0
    9.9755    2.7406   -0.8771 C   0  0  0  0  0  0  0  0  0  0  0  0
    9.4771    1.6379    1.2602 C   0  0  0  0  0  0  0  0  0  0  0  0
    8.3444    0.9491    0.5504 C   0  0  0  0  0  0  0  0  0  0  0  0
    7.0508    1.3361    1.2516 C   0  0  0  0  0  0  0  0  0  0  0  0
    5.9509    0.6396    0.5261 C   0  0  0  0  0  0  0  0  0  0  0  0
    5.7278    0.9084   -0.9066 C   0  0  0  0  0  0  0  0  0  0  0  0
    5.1412   -0.2358    1.1302 C   0  0  0  0  0  0  0  0  0  0  0  0
    4.0474   -0.9302    0.4147 C   0  0  0  0  0  0  0  0  0  0  0  0
    4.2395   -2.4300    0.4572 C   0  0  0  0  0  0  0  0  0  0  0  0
    3.1759   -3.1609   -0.2431 C   0  0  0  0  0  0  0  0  0  0  0  0
    3.2418   -4.6480   -0.2774 C   0  0  0  0  0  0  0  0  0  0  0  0
    2.1420   -2.5899   -0.8572 C   0  0  0  0  0  0  0  0  0  0  0  0
    1.0896   -3.3692   -1.5529 C   0  0  0  0  0  0  0  0  0  0  0  0
   -0.2783   -3.1324   -0.9594 C   0  0  0  0  0  0  0  0  0  0  0  0
   -0.6934   -1.7062   -1.0341 C   0  0  0  0  0  0  0  0  0  0  0  0
   -0.8249   -0.9918   -2.3463 C   0  0  0  0  0  0  0  0  0  0  0  0
   -0.9658   -1.0050    0.0582 C   0  0  0  0  0  0  0  0  0  0  0  0
   -1.3798    0.3947    0.0933 C   0  0  0  0  0  0  0  0  0  0  0  0
   -2.7232    0.6195    0.7032 C   0  0  0  0  0  0  0  0  0  0  0  0
   -3.8408   -0.0675   -0.0195 C   0  0  0  0  0  0  0  0  0  0  0  0
   -3.8752   -1.5397   -0.1612 C   0  0  0  0  0  0  0  0  0  0  0  0
   -4.8186    0.6632   -0.5367 C   0  0  0  0  0  0  0  0  0  0  0  0
   -5.9701    0.1254   -1.2665 C   0  0  0  0  0  0  0  0  0  0  0  0
   -7.2686    0.5015   -0.6430 C   0  0  0  0  0  0  0  0  0  0  0  0
   -8.1329   -0.4023   -0.2497 C   0  0  0  0  0  0  0  0  0  0  0  0
   -7.8579   -1.8582   -0.4086 C   0  0  0  0  0  0  0  0  0  0  0  0
   -9.4179   -0.0107    0.3690 C   0  0  0  0  0  0  0  0  0  0  0  0
  -10.2022   -0.9194    0.7244 O   0  0  0  0  0  0  0  0  0  0  0  0
   -9.7053    1.4047    0.5332 C   0  0  0  0  0  0  0  0  0  0  0  0
   -8.8267    2.3901    0.1346 C   0  0  0  0  0  0  0  0  0  0  0  0
   -9.1273    3.7256    0.3043 C   0  0  0  0  0  0  0  0  0  0  0  0
  -10.3178    4.1107    0.8783 C   0  0  0  0  0  0  0  0  0  0  0  0
  -11.2052    3.1381    1.2813 C   0  0  0  0  0  0  0  0  0  0  0  0
  -10.8943    1.8102    1.1069 C   0  0  0  0  0  0  0  0  0  0  0  0
   -7.5820    1.9380   -0.4661 C   0  0  0  0  0  0  0  0  0  0  0  0
   -6.7688    2.8251   -0.8358 O   0  0  0  0  0  0  0  0  0  0  0  0
   11.6419    2.7154    2.1806 H   0  0  0  0  0  0  0  0  0  0  0  0
   12.2296    3.0679    0.5069 H   0  0  0  0  0  0  0  0  0  0  0  0
   11.1366    4.2560    1.3695 H   0  0  0  0  0  0  0  0  0  0  0  0
    8.9260    3.0965   -1.0611 H   0  0  0  0  0  0  0  0  0  0  0  0
   10.6305    3.5306   -1.2544 H   0  0  0  0  0  0  0  0  0  0  0  0
   10.0534    1.7885   -1.4711 H   0  0  0  0  0  0  0  0  0  0  0  0
    9.6888    1.4720    2.2966 H   0  0  0  0  0  0  0  0  0  0  0  0
    8.3108    1.2339   -0.5106 H   0  0  0  0  0  0  0  0  0  0  0  0
    8.4639   -0.1518    0.5958 H   0  0  0  0  0  0  0  0  0  0  0  0
    7.0771    1.0965    2.3158 H   0  0  0  0  0  0  0  0  0  0  0  0
    6.8578    2.4229    1.1449 H   0  0  0  0  0  0  0  0  0  0  0  0
    4.7221    1.3432   -1.1226 H   0  0  0  0  0  0  0  0  0  0  0  0
    5.8919   -0.0364   -1.4892 H   0  0  0  0  0  0  0  0  0  0  0  0
    6.4639    1.6445   -1.2971 H   0  0  0  0  0  0  0  0  0  0  0  0
    5.2832   -0.4471    2.1722 H   0  0  0  0  0  0  0  0  0  0  0  0
    4.1140   -0.6302   -0.6552 H   0  0  0  0  0  0  0  0  0  0  0  0
    3.0869   -0.6088    0.8122 H   0  0  0  0  0  0  0  0  0  0  0  0
    5.2591   -2.7120    0.1365 H   0  0  0  0  0  0  0  0  0  0  0  0
    4.1686   -2.7147    1.5432 H   0  0  0  0  0  0  0  0  0  0  0  0
    2.3791   -5.1126    0.2425 H   0  0  0  0  0  0  0  0  0  0  0  0
    3.3092   -5.0380   -1.3301 H   0  0  0  0  0  0  0  0  0  0  0  0
    4.1488   -5.0284    0.2338 H   0  0  0  0  0  0  0  0  0  0  0  0
    2.0750   -1.5255   -0.8448 H   0  0  0  0  0  0  0  0  0  0  0  0
    1.0487   -2.9679   -2.6072 H   0  0  0  0  0  0  0  0  0  0  0  0
    1.2921   -4.4350   -1.6369 H   0  0  0  0  0  0  0  0  0  0  0  0
   -0.2235   -3.4161    0.1061 H   0  0  0  0  0  0  0  0  0  0  0  0
   -1.0107   -3.7972   -1.4529 H   0  0  0  0  0  0  0  0  0  0  0  0
   -0.0560   -0.1877   -2.4470 H   0  0  0  0  0  0  0  0  0  0  0  0
   -0.6500   -1.7554   -3.1518 H   0  0  0  0  0  0  0  0  0  0  0  0
   -1.8490   -0.6096   -2.5002 H   0  0  0  0  0  0  0  0  0  0  0  0
   -0.8607   -1.5340    1.0218 H   0  0  0  0  0  0  0  0  0  0  0  0
   -0.6426    0.9492    0.7416 H   0  0  0  0  0  0  0  0  0  0  0  0
   -1.3037    0.8737   -0.9148 H   0  0  0  0  0  0  0  0  0  0  0  0
   -2.7486    0.1873    1.7354 H   0  0  0  0  0  0  0  0  0  0  0  0
   -2.9729    1.6882    0.7852 H   0  0  0  0  0  0  0  0  0  0  0  0
   -3.1491   -1.9604    0.5894 H   0  0  0  0  0  0  0  0  0  0  0  0
   -3.5796   -1.8015   -1.1976 H   0  0  0  0  0  0  0  0  0  0  0  0
   -4.8763   -1.9898    0.0091 H   0  0  0  0  0  0  0  0  0  0  0  0
   -4.7513    1.7417   -0.4046 H   0  0  0  0  0  0  0  0  0  0  0  0
   -5.9776    0.5197   -2.3276 H   0  0  0  0  0  0  0  0  0  0  0  0
   -5.9079   -0.9663   -1.3671 H   0  0  0  0  0  0  0  0  0  0  0  0
   -8.8268   -2.4352   -0.2638 H   0  0  0  0  0  0  0  0  0  0  0  0
   -7.1972   -2.2110    0.3863 H   0  0  0  0  0  0  0  0  0  0  0  0
   -7.5340   -2.1246   -1.4288 H   0  0  0  0  0  0  0  0  0  0  0  0
   -8.4102    4.4676   -0.0224 H   0  0  0  0  0  0  0  0  0  0  0  0
  -10.5223    5.1730    0.9968 H   0  0  0  0  0  0  0  0  0  0  0  0
  -12.1489    3.4034    1.7356 H   0  0  0  0  0  0  0  0  0  0  0  0
  -11.5789    1.0085    1.4167 H   0  0  0  0  0  0  0  0  0  0  0  0
  1  2  1  0
  2  3  1  0
  2  4  2  3
  4  5  1  0
  5  6  1  0
  6  7  1  0
  7  8  1  0
  7  9  2  0
  9 10  1  0
 10 11  1  0
 11 12  1  0
 12 13  1  0
 12 14  2  0
 14 15  1  0
 15 16  1  0
 16 17  1  0
 17 18  1  0
 17 19  2  0
 19 20  1  0
 20 21  1  0
 21 22  1  0
 22 23  1  0
 22 24  2  0
 24 25  1  0
 25 26  1  0
 26 27  2  0
 27 28  1  0
 27 29  1  0
 29 30  2  0
 29 31  1  0
 31 32  2  0
 32 33  1  0
 33 34  2  0
 34 35  1  0
 35 36  2  0
 31 36  1  0
 32 37  1  0
 26 37  1  0
 37 38  2  0
  1 39  1  0
  1 40  1  0
  1 41  1  0
  3 42  1  0
  3 43  1  0
  3 44  1  0
  4 45  1  0
  5 46  1  0
  5 47  1  0
  6 48  1  0
  6 49  1  0
  8 50  1  0
  8 51  1  0
  8 52  1  0
  9 53  1  0
 10 54  1  0
 10 55  1  0
 11 56  1  0
 11 57  1  0
 13 58  1  0
 13 59  1  0
 13 60  1  0
 14 61  1  0
 15 62  1  0
 15 63  1  0
 16 64  1  0
 16 65  1  0
 18 66  1  0
 18 67  1  0
 18 68  1  0
 19 69  1  0
 20 70  1  0
 20 71  1  0
 21 72  1  0
 21 73  1  0
 23 74  1  0
 23 75  1  0
 23 76  1  0
 24 77  1  0
 25 78  1  0
 25 79  1  0
 28 80  1  0
 28 81  1  0
 28 82  1  0
 33 83  1  0
 34 84  1  0
 35 85  1  0
 36 86  1  0
M  END

