404771531
     RDKit          3D

 75 78  0  0  0  0  0  0  0  0999 V2000
   10.1740   -0.9395    1.5124 C   0  0  0  0  0  0  0  0  0  0  0  0
   -3.7029    6.5761   -0.2681 C   0  0  0  0  0  0  0  0  0  0  0  0
   -6.0814    6.3670    0.4340 C   0  0  0  0  0  0  0  0  0  0  0  0
   -7.3711   -4.7748   -0.3348 C   0  0  0  0  0  0  0  0  0  0  0  0
   -5.3848   -4.9539    1.1169 C   0  0  0  0  0  0  0  0  0  0  0  0
    9.7523   -2.2949    1.0604 C   0  0  0  0  0  0  0  0  0  0  0  0
    7.9403   -1.7429   -1.0851 C   0  0  0  0  0  0  0  0  0  0  0  0
    7.2584   -0.6502   -0.8080 C   0  0  0  0  0  0  0  0  0  0  0  0
    5.2584    0.6598   -0.4102 C   0  0  0  0  0  0  0  0  0  0  0  0
    4.9991   -1.6282   -0.8813 C   0  0  0  0  0  0  0  0  0  0  0  0
    3.9123    0.8589   -0.2873 C   0  0  0  0  0  0  0  0  0  0  0  0
    3.6246   -1.4530   -0.7618 C   0  0  0  0  0  0  0  0  0  0  0  0
   -1.7257    2.7276   -0.7371 C   0  0  0  0  0  0  0  0  0  0  0  0
   -2.1285    1.7513    1.3730 C   0  0  0  0  0  0  0  0  0  0  0  0
   -2.6069   -1.6102    0.6253 C   0  0  0  0  0  0  0  0  0  0  0  0
   -2.1244   -1.8511   -1.6566 C   0  0  0  0  0  0  0  0  0  0  0  0
   -2.7190    3.6598   -0.5284 C   0  0  0  0  0  0  0  0  0  0  0  0
   -3.1334    2.6960    1.5817 C   0  0  0  0  0  0  0  0  0  0  0  0
   -3.7531   -2.3526    0.4508 C   0  0  0  0  0  0  0  0  0  0  0  0
   -3.2670   -2.5946   -1.8449 C   0  0  0  0  0  0  0  0  0  0  0  0
    9.4461   -1.7186   -1.1688 C   0  0  0  0  0  0  0  0  0  0  0  0
   -4.8440    5.6364   -0.0206 C   0  0  0  0  0  0  0  0  0  0  0  0
   -6.1417   -4.0078    0.1732 C   0  0  0  0  0  0  0  0  0  0  0  0
    5.8188   -0.5606   -0.7034 C   0  0  0  0  0  0  0  0  0  0  0  0
   -1.4051    1.7504    0.2065 C   0  0  0  0  0  0  0  0  0  0  0  0
   -1.7607   -1.3355   -0.4096 C   0  0  0  0  0  0  0  0  0  0  0  0
    3.0914   -0.2312   -0.4700 C   0  0  0  0  0  0  0  0  0  0  0  0
   -3.4390    3.6543    0.6416 C   0  0  0  0  0  0  0  0  0  0  0  0
   -4.1099   -2.8611   -0.7835 C   0  0  0  0  0  0  0  0  0  0  0  0
   -0.3394    0.7799   -0.0565 C   0  0  0  0  0  0  0  0  0  0  0  0
   -0.5405   -0.5637   -0.3224 C   0  0  0  0  0  0  0  0  0  0  0  0
    1.6280   -0.0744   -0.3506 C   0  0  0  0  0  0  0  0  0  0  0  0
   -4.4777    4.5982    0.8998 N   0  0  0  0  0  0  0  0  0  0  0  0
   -5.2947   -3.6294   -0.9381 N   0  0  0  0  0  0  0  0  0  0  0  0
    0.9668    1.0508   -0.0783 N   0  0  0  0  0  0  0  0  0  0  0  0
    0.7221   -1.0512   -0.4986 N   0  0  0  0  0  0  0  0  0  0  0  0
   10.0347   -2.5614   -0.2620 O   0  0  0  0  0  0  0  0  0  0  0  0
    9.2626   -0.2956    1.6881 H   0  0  0  0  0  0  0  0  0  0  0  0
   10.6584   -1.0287    2.5062 H   0  0  0  0  0  0  0  0  0  0  0  0
   10.8823   -0.4383    0.8234 H   0  0  0  0  0  0  0  0  0  0  0  0
   -3.5501    6.7328   -1.3701 H   0  0  0  0  0  0  0  0  0  0  0  0
   -2.7951    6.2568    0.2467 H   0  0  0  0  0  0  0  0  0  0  0  0
   -3.9933    7.5945    0.1065 H   0  0  0  0  0  0  0  0  0  0  0  0
   -5.8391    7.4372    0.6371 H   0  0  0  0  0  0  0  0  0  0  0  0
   -6.5300    5.9047    1.3417 H   0  0  0  0  0  0  0  0  0  0  0  0
   -6.8565    6.4053   -0.3834 H   0  0  0  0  0  0  0  0  0  0  0  0
   -8.0754   -4.9461    0.5043 H   0  0  0  0  0  0  0  0  0  0  0  0
   -7.0411   -5.7921   -0.6614 H   0  0  0  0  0  0  0  0  0  0  0  0
   -7.8984   -4.2149   -1.1117 H   0  0  0  0  0  0  0  0  0  0  0  0
   -5.6867   -4.6689    2.1445 H   0  0  0  0  0  0  0  0  0  0  0  0
   -4.3008   -4.8950    0.9961 H   0  0  0  0  0  0  0  0  0  0  0  0
   -5.7424   -6.0134    0.9469 H   0  0  0  0  0  0  0  0  0  0  0  0
   10.2844   -3.0647    1.6617 H   0  0  0  0  0  0  0  0  0  0  0  0
    8.6726   -2.4360    1.3061 H   0  0  0  0  0  0  0  0  0  0  0  0
    7.3986   -2.6546   -1.2508 H   0  0  0  0  0  0  0  0  0  0  0  0
    7.8851    0.2416   -0.6516 H   0  0  0  0  0  0  0  0  0  0  0  0
    5.9228    1.5266   -0.2655 H   0  0  0  0  0  0  0  0  0  0  0  0
    5.3911   -2.6244   -1.1166 H   0  0  0  0  0  0  0  0  0  0  0  0
    3.5170    1.8501   -0.0528 H   0  0  0  0  0  0  0  0  0  0  0  0
    3.0159   -2.3426   -0.9145 H   0  0  0  0  0  0  0  0  0  0  0  0
   -1.1558    2.7185   -1.6429 H   0  0  0  0  0  0  0  0  0  0  0  0
   -1.9378    1.0348    2.1432 H   0  0  0  0  0  0  0  0  0  0  0  0
   -2.3838   -1.2442    1.6127 H   0  0  0  0  0  0  0  0  0  0  0  0
   -1.4890   -1.6621   -2.5063 H   0  0  0  0  0  0  0  0  0  0  0  0
   -2.9579    4.4162   -1.2775 H   0  0  0  0  0  0  0  0  0  0  0  0
   -3.6712    2.6534    2.5135 H   0  0  0  0  0  0  0  0  0  0  0  0
   -4.3958   -2.5374    1.3217 H   0  0  0  0  0  0  0  0  0  0  0  0
   -3.5370   -2.9910   -2.8278 H   0  0  0  0  0  0  0  0  0  0  0  0
    9.6822   -2.1268   -2.1875 H   0  0  0  0  0  0  0  0  0  0  0  0
    9.7755   -0.6741   -1.1134 H   0  0  0  0  0  0  0  0  0  0  0  0
   -5.1069    5.1211   -0.9887 H   0  0  0  0  0  0  0  0  0  0  0  0
   -6.4884   -3.1432    0.7360 H   0  0  0  0  0  0  0  0  0  0  0  0
   -5.0084    4.5419    1.8042 H   0  0  0  0  0  0  0  0  0  0  0  0
   -5.5778   -3.9406   -1.8910 H   0  0  0  0  0  0  0  0  0  0  0  0
    1.3941    1.9735    0.0873 H   0  0  0  0  0  0  0  0  0  0  0  0
  1  6  1  0
  7  8  2  0
  9 11  2  0
 10 12  1  0
 13 17  2  0
 14 18  1  0
 15 19  2  0
 16 20  1  0
  7 21  1  0
  2 22  1  0
  3 22  1  0
  4 23  1  0
  5 23  1  0
  8 24  1  0
  9 24  1  0
 10 24  2  0
 13 25  1  0
 14 25  2  0
 15 26  1  0
 16 26  2  0
 11 27  1  0
 12 27  2  0
 17 28  1  0
 18 28  2  0
 19 29  1  0
 20 29  2  0
 25 30  1  0
 26 31  1  0
 30 31  2  0
 27 32  1  0
 22 33  1  0
 28 33  1  0
 23 34  1  0
 29 34  1  0
 30 35  1  0
 32 35  1  0
 31 36  1  0
 32 36  2  0
  6 37  1  0
 21 37  1  0
  1 38  1  0
  1 39  1  0
  1 40  1  0
  2 41  1  0
  2 42  1  0
  2 43  1  0
  3 44  1  0
  3 45  1  0
  3 46  1  0
  4 47  1  0
  4 48  1  0
  4 49  1  0
  5 50  1  0
  5 51  1  0
  5 52  1  0
  6 53  1  0
  6 54  1  0
  7 55  1  0
  8 56  1  0
  9 57  1  0
 10 58  1  0
 11 59  1  0
 12 60  1  0
 13 61  1  0
 14 62  1  0
 15 63  1  0
 16 64  1  0
 17 65  1  0
 18 66  1  0
 19 67  1  0
 20 68  1  0
 21 69  1  0
 21 70  1  0
 22 71  1  0
 23 72  1  0
 33 73  1  0
 34 74  1  0
 35 75  1  0
M  END

