404770402
     RDKit          3D

 26 26  0  0  1  0  0  0  0  0999 V2000
   -2.7152    0.9707   -0.3440 C   0  0  0  0  0  0  0  0  0  0  0  0
    3.5342    0.3078    0.1884 C   0  0  0  0  0  0  0  0  0  0  0  0
   -0.6725   -0.5222   -0.0624 C   0  0  2  0  0  0  0  0  0  0  0  0
   -0.0887    0.3181    1.0793 C   0  0  0  0  0  0  0  0  0  0  0  0
    1.3062   -0.2361    1.3002 C   0  0  0  0  0  0  0  0  0  0  0  0
    0.0414   -0.0859   -1.3197 C   0  0  0  0  0  0  0  0  0  0  0  0
   -2.1229   -0.3680   -0.1255 C   0  0  0  0  0  0  0  0  0  0  0  0
   -2.9109   -1.4001    0.0088 C   0  0  0  0  0  0  0  0  0  0  0  0
    2.0803    0.0708    0.0787 C   0  0  0  0  0  0  0  0  0  0  0  0
    1.4924    0.1329   -1.0842 C   0  0  0  0  0  0  0  0  0  0  0  0
   -2.5821    1.6287    0.5632 H   0  0  0  0  0  0  0  0  0  0  0  0
   -3.8270    0.9042   -0.4719 H   0  0  0  0  0  0  0  0  0  0  0  0
   -2.3311    1.4775   -1.2510 H   0  0  0  0  0  0  0  0  0  0  0  0
    3.6593    1.4050    0.4072 H   0  0  0  0  0  0  0  0  0  0  0  0
    4.0707    0.0876   -0.7707 H   0  0  0  0  0  0  0  0  0  0  0  0
    3.9685   -0.2655    1.0339 H   0  0  0  0  0  0  0  0  0  0  0  0
   -0.3422   -1.5678    0.1376 H   0  0  0  0  0  0  0  0  0  0  0  0
   -0.0056    1.3659    0.7098 H   0  0  0  0  0  0  0  0  0  0  0  0
   -0.7099    0.2854    1.9771 H   0  0  0  0  0  0  0  0  0  0  0  0
    1.7771    0.1542    2.2236 H   0  0  0  0  0  0  0  0  0  0  0  0
    1.2148   -1.3561    1.3893 H   0  0  0  0  0  0  0  0  0  0  0  0
   -0.3858    0.8532   -1.7311 H   0  0  0  0  0  0  0  0  0  0  0  0
   -0.0625   -0.8565   -2.1115 H   0  0  0  0  0  0  0  0  0  0  0  0
   -3.9764   -1.2800   -0.0386 H   0  0  0  0  0  0  0  0  0  0  0  0
   -2.5094   -2.3848    0.1686 H   0  0  0  0  0  0  0  0  0  0  0  0
    2.0973    0.3610   -1.9551 H   0  0  0  0  0  0  0  0  0  0  0  0
  1  7  1  0
  2  9  1  0
  3  4  1  0
  3  6  1  0
  3  7  1  0
  4  5  1  0
  5  9  1  0
  6 10  1  0
  7  8  2  3
  9 10  2  0
  1 11  1  0
  1 12  1  0
  1 13  1  0
  2 14  1  0
  2 15  1  0
  2 16  1  0
  3 17  1  1
  4 18  1  0
  4 19  1  0
  5 20  1  0
  5 21  1  0
  6 22  1  0
  6 23  1  0
  8 24  1  0
  8 25  1  0
 10 26  1  0
M  END

