404771110
     RDKit          3D

 27 28  0  0  0  0  0  0  0  0999 V2000
   -2.5862    2.3847   -0.0291 C   0  0  0  0  0  0  0  0  0  0  0  0
   -2.3230   -2.4815   -0.1826 C   0  0  0  0  0  0  0  0  0  0  0  0
    2.7273   -0.4813    0.4755 C   0  0  0  0  0  0  0  0  0  0  0  0
    1.6540    1.7374    0.4307 C   0  0  0  0  0  0  0  0  0  0  0  0
    3.2842   -0.7492   -0.8671 C   0  0  0  0  0  0  0  0  0  0  0  0
    0.3134    0.0569    0.2147 C   0  0  0  0  0  0  0  0  0  0  0  0
   -0.4618    1.1952    0.1683 C   0  0  0  0  0  0  0  0  0  0  0  0
   -0.3471   -1.1639    0.0935 C   0  0  0  0  0  0  0  0  0  0  0  0
   -2.3851   -0.0624   -0.0981 C   0  0  0  0  0  0  0  0  0  0  0  0
    0.4042    2.2203    0.3055 N   0  0  0  0  0  0  0  0  0  0  0  0
   -1.8126    1.1579    0.0128 N   0  0  0  0  0  0  0  0  0  0  0  0
   -1.6773   -1.1898   -0.0597 N   0  0  0  0  0  0  0  0  0  0  0  0
    1.5993    0.4008    0.3748 N   0  0  0  0  0  0  0  0  0  0  0  0
    2.9238   -1.7185   -1.5831 O   0  0  0  0  0  0  0  0  0  0  0  0
    4.2620    0.1178   -1.3687 O   0  0  0  0  0  0  0  0  0  0  0  0
    0.3760   -2.1963    0.1376 O   0  0  0  0  0  0  0  0  0  0  0  0
   -3.6313   -0.0943   -0.2416 O   0  0  0  0  0  0  0  0  0  0  0  0
   -3.4591    2.2375   -0.7174 H   0  0  0  0  0  0  0  0  0  0  0  0
   -1.9314    3.1992   -0.3892 H   0  0  0  0  0  0  0  0  0  0  0  0
   -3.0304    2.6244    0.9568 H   0  0  0  0  0  0  0  0  0  0  0  0
   -3.1321   -2.6010    0.5916 H   0  0  0  0  0  0  0  0  0  0  0  0
   -2.7651   -2.5794   -1.1900 H   0  0  0  0  0  0  0  0  0  0  0  0
   -1.6255   -3.3067   -0.0189 H   0  0  0  0  0  0  0  0  0  0  0  0
    3.5157    0.0256    1.0615 H   0  0  0  0  0  0  0  0  0  0  0  0
    2.4649   -1.4690    0.9061 H   0  0  0  0  0  0  0  0  0  0  0  0
    2.5737    2.3272    0.5571 H   0  0  0  0  0  0  0  0  0  0  0  0
    5.0696    0.4084   -0.8089 H   0  0  0  0  0  0  0  0  0  0  0  0
  3  5  1  0
  6  7  2  0
  6  8  1  0
  4 10  2  0
  7 10  1  0
  1 11  1  0
  7 11  1  0
  9 11  1  0
  2 12  1  0
  8 12  1  0
  9 12  1  0
  3 13  1  0
  4 13  1  0
  6 13  1  0
  5 14  2  0
  5 15  1  0
  8 16  2  0
  9 17  2  0
  1 18  1  0
  1 19  1  0
  1 20  1  0
  2 21  1  0
  2 22  1  0
  2 23  1  0
  3 24  1  0
  3 25  1  0
  4 26  1  0
 15 27  1  0
M  END

