404770167
     RDKit          3D

 77 82  0  0  0  0  0  0  0  0999 V2000
    8.3359   -1.5459   -2.0228 C   0  0  0  0  0  0  0  0  0  0  0  0
    8.2426   -0.7014   -0.7968 C   0  0  0  0  0  0  0  0  0  0  0  0
    7.3884    0.2939   -0.5289 N   0  0  0  0  0  0  0  0  0  0  0  0
    7.6747    0.7724    0.7038 C   0  0  0  0  0  0  0  0  0  0  0  0
    8.7340    0.0537    1.2112 C   0  0  0  0  0  0  0  0  0  0  0  0
    9.0619   -0.8452    0.2659 N   0  0  0  0  0  0  0  0  0  0  0  0
    9.1936    0.3814    2.4635 C   0  0  0  0  0  0  0  0  0  0  0  0
    8.6425    1.3738    3.1985 N   0  0  0  0  0  0  0  0  0  0  0  0
    7.6084    2.0909    2.7269 C   0  0  0  0  0  0  0  0  0  0  0  0
    7.1262    1.7857    1.4749 C   0  0  0  0  0  0  0  0  0  0  0  0
    6.3519    0.7984   -1.3694 C   0  0  0  0  0  0  0  0  0  0  0  0
    5.0220    0.0937   -1.2298 C   0  0  0  0  0  0  0  0  0  0  0  0
    4.0506    0.7611   -2.1800 C   0  0  0  0  0  0  0  0  0  0  0  0
    2.8771    1.3815   -1.4270 C   0  0  0  0  0  0  0  0  0  0  0  0
    2.2668    0.3402   -0.6444 N   0  0  0  0  0  0  0  0  0  0  0  0
    3.1026   -0.5711    0.0837 C   0  0  0  0  0  0  0  0  0  0  0  0
    4.4843    0.1057    0.1774 C   0  0  0  0  0  0  0  0  0  0  0  0
    0.8202    0.2415   -0.6066 C   0  0  0  0  0  0  0  0  0  0  0  0
    0.1532    1.0732   -1.2480 O   0  0  0  0  0  0  0  0  0  0  0  0
    0.2208   -0.8169    0.1733 C   0  0  0  0  0  0  0  0  0  0  0  0
   -1.0493   -1.0536    0.3935 C   0  0  0  0  0  0  0  0  0  0  0  0
   -2.0814   -0.1830   -0.1571 C   0  0  0  0  0  0  0  0  0  0  0  0
   -3.1703   -0.7264   -0.8290 C   0  0  0  0  0  0  0  0  0  0  0  0
   -4.1880    0.0968   -1.2146 C   0  0  0  0  0  0  0  0  0  0  0  0
   -4.2016    1.4552   -0.9742 C   0  0  0  0  0  0  0  0  0  0  0  0
   -3.0859    1.9553   -0.2941 C   0  0  0  0  0  0  0  0  0  0  0  0
   -2.0416    1.1615    0.1120 C   0  0  0  0  0  0  0  0  0  0  0  0
   -5.2335    2.2652   -1.3851 N   0  0  0  0  0  0  0  0  0  0  0  0
   -6.3543    2.5380   -1.3558 N   0  0  0  0  0  0  0  0  0  0  0  0
   -7.6016    2.2093   -0.8285 C   0  0  0  0  0  0  0  0  0  0  0  0
   -8.2420    1.0301   -1.0699 C   0  0  0  0  0  0  0  0  0  0  0  0
   -9.4800    0.7467   -0.5344 C   0  0  0  0  0  0  0  0  0  0  0  0
  -10.1066    1.6719    0.2723 C   0  0  0  0  0  0  0  0  0  0  0  0
   -9.4407    2.8895    0.5195 C   0  0  0  0  0  0  0  0  0  0  0  0
   -8.2245    3.1420   -0.0194 C   0  0  0  0  0  0  0  0  0  0  0  0
  -11.3369    1.4938    0.8537 O   0  0  0  0  0  0  0  0  0  0  0  0
  -10.1190   -0.5372   -0.8290 C   0  0  0  0  0  0  0  0  0  0  0  0
  -11.2088   -0.9171   -0.4238 O   0  0  0  0  0  0  0  0  0  0  0  0
   -9.4239   -1.4409   -1.6624 O   0  0  0  0  0  0  0  0  0  0  0  0
   -1.4835   -2.2312    1.1936 C   0  0  0  0  0  0  0  0  0  0  0  0
   -2.8035   -2.3244    1.5500 C   0  0  0  0  0  0  0  0  0  0  0  0
   -3.2213   -3.4436    2.2639 C   0  0  0  0  0  0  0  0  0  0  0  0
   -2.3804   -4.4634    2.6332 C   0  0  0  0  0  0  0  0  0  0  0  0
   -1.0573   -4.3435    2.2622 C   0  0  0  0  0  0  0  0  0  0  0  0
   -0.6092   -3.2275    1.5426 C   0  0  0  0  0  0  0  0  0  0  0  0
    8.2825   -2.6311   -1.7764 H   0  0  0  0  0  0  0  0  0  0  0  0
    9.3725   -1.3923   -2.4427 H   0  0  0  0  0  0  0  0  0  0  0  0
    7.6339   -1.2373   -2.8027 H   0  0  0  0  0  0  0  0  0  0  0  0
   10.0261   -0.1711    2.8818 H   0  0  0  0  0  0  0  0  0  0  0  0
    7.1506    2.8942    3.3011 H   0  0  0  0  0  0  0  0  0  0  0  0
    6.3084    2.3674    1.1093 H   0  0  0  0  0  0  0  0  0  0  0  0
    6.7079    0.7972   -2.4076 H   0  0  0  0  0  0  0  0  0  0  0  0
    6.1728    1.8720   -1.1102 H   0  0  0  0  0  0  0  0  0  0  0  0
    5.1301   -1.0060   -1.4859 H   0  0  0  0  0  0  0  0  0  0  0  0
    4.5258    1.6100   -2.7229 H   0  0  0  0  0  0  0  0  0  0  0  0
    3.6606    0.0662   -2.9510 H   0  0  0  0  0  0  0  0  0  0  0  0
    2.1851    1.7893   -2.2010 H   0  0  0  0  0  0  0  0  0  0  0  0
    3.2464    2.2098   -0.7848 H   0  0  0  0  0  0  0  0  0  0  0  0
    3.2207   -1.4786   -0.5298 H   0  0  0  0  0  0  0  0  0  0  0  0
    2.7359   -0.8187    1.1012 H   0  0  0  0  0  0  0  0  0  0  0  0
    4.3720    1.1517    0.5124 H   0  0  0  0  0  0  0  0  0  0  0  0
    5.1461   -0.5021    0.8213 H   0  0  0  0  0  0  0  0  0  0  0  0
    0.9012   -1.5452    0.6809 H   0  0  0  0  0  0  0  0  0  0  0  0
   -3.2080   -1.7777   -1.0429 H   0  0  0  0  0  0  0  0  0  0  0  0
   -5.0263   -0.3503   -1.7377 H   0  0  0  0  0  0  0  0  0  0  0  0
   -3.1176    3.0266   -0.1143 H   0  0  0  0  0  0  0  0  0  0  0  0
   -1.2601    1.6613    0.6748 H   0  0  0  0  0  0  0  0  0  0  0  0
   -7.7770    0.2715   -1.7038 H   0  0  0  0  0  0  0  0  0  0  0  0
   -9.9568    3.5955    1.1546 H   0  0  0  0  0  0  0  0  0  0  0  0
   -7.7167    4.0977    0.1820 H   0  0  0  0  0  0  0  0  0  0  0  0
  -11.9336    0.7262    0.7918 H   0  0  0  0  0  0  0  0  0  0  0  0
   -9.5034   -1.3609   -2.6685 H   0  0  0  0  0  0  0  0  0  0  0  0
   -3.5223   -1.5447    1.3093 H   0  0  0  0  0  0  0  0  0  0  0  0
   -4.2663   -3.4914    2.5318 H   0  0  0  0  0  0  0  0  0  0  0  0
   -2.7801   -5.3012    3.1868 H   0  0  0  0  0  0  0  0  0  0  0  0
   -0.3683   -5.1441    2.5454 H   0  0  0  0  0  0  0  0  0  0  0  0
    0.4452   -3.2142    1.2826 H   0  0  0  0  0  0  0  0  0  0  0  0
  1  2  1  0
  2  3  1  0
  3  4  1  0
  4  5  2  0
  5  6  1  0
  2  6  2  0
  5  7  1  0
  7  8  2  0
  8  9  1  0
  9 10  2  0
  4 10  1  0
  3 11  1  0
 12 11  1  0
 12 13  1  0
 13 14  1  0
 14 15  1  0
 15 16  1  0
 16 17  1  0
 12 17  1  0
 15 18  1  0
 18 19  2  0
 18 20  1  0
 20 21  2  0
 21 22  1  0
 22 23  2  0
 23 24  1  0
 24 25  2  0
 25 26  1  0
 26 27  2  0
 22 27  1  0
 25 28  1  0
 28 29  2  0
 29 30  1  0
 30 31  2  0
 31 32  1  0
 32 33  2  0
 33 34  1  0
 34 35  2  0
 30 35  1  0
 33 36  1  0
 32 37  1  0
 37 38  2  0
 37 39  1  0
 21 40  1  0
 40 41  2  0
 41 42  1  0
 42 43  2  0
 43 44  1  0
 44 45  2  0
 40 45  1  0
  1 46  1  0
  1 47  1  0
  1 48  1  0
  7 49  1  0
  9 50  1  0
 10 51  1  0
 11 52  1  0
 11 53  1  0
 12 54  1  0
 13 55  1  0
 13 56  1  0
 14 57  1  0
 14 58  1  0
 16 59  1  0
 16 60  1  0
 17 61  1  0
 17 62  1  0
 20 63  1  0
 23 64  1  0
 24 65  1  0
 26 66  1  0
 27 67  1  0
 31 68  1  0
 34 69  1  0
 35 70  1  0
 36 71  1  0
 39 72  1  0
 41 73  1  0
 42 74  1  0
 43 75  1  0
 44 76  1  0
 45 77  1  0
M  END

