404772588
     RDKit          3D

 53 56  0  0  1  0  0  0  0  0999 V2000
   -4.4444   -4.5348    0.9267 C   0  0  0  0  0  0  0  0  0  0  0  0
   -5.4797   -3.6457    0.5697 O   0  0  0  0  0  0  0  0  0  0  0  0
   -5.2580   -2.3424    0.1931 C   0  0  0  0  0  0  0  0  0  0  0  0
   -3.9814   -1.8165    0.1414 C   0  0  0  0  0  0  0  0  0  0  0  0
   -3.7492   -0.5082   -0.2362 C   0  0  0  0  0  0  0  0  0  0  0  0
   -4.8450    0.2751   -0.5664 C   0  0  0  0  0  0  0  0  0  0  0  0
   -6.1256   -0.2197   -0.5245 C   0  0  0  0  0  0  0  0  0  0  0  0
   -7.1848    0.6014   -0.8629 O   0  0  0  0  0  0  0  0  0  0  0  0
   -6.9949    1.9310   -1.2506 C   0  0  0  0  0  0  0  0  0  0  0  0
   -6.3155   -1.5322   -0.1422 C   0  0  0  0  0  0  0  0  0  0  0  0
   -2.4026   -0.0248   -0.2685 C   0  0  0  0  0  0  0  0  0  0  0  0
   -1.2571    0.3706   -0.2803 C   0  0  0  0  0  0  0  0  0  0  0  0
    0.1183    0.8170   -0.2885 C   0  0  0  0  0  0  0  0  0  0  0  0
    1.1321    0.3152   -0.9909 N   0  0  0  0  0  0  0  0  0  0  0  0
    2.2620    0.9949   -0.7348 N   0  0  0  0  0  0  0  0  0  0  0  0
    3.5591    0.7317   -1.3162 C   0  0  1  0  0  0  0  0  0  0  0  0
    4.5983    1.7546   -1.0091 C   0  0  0  0  0  0  0  0  0  0  0  0
    5.3605    1.2326    0.1617 C   0  0  0  0  0  0  0  0  0  0  0  0
    5.2966   -0.2492    0.0073 N   0  0  0  0  0  0  0  0  0  0  0  0
    4.1408   -0.5659   -0.7841 C   0  0  0  0  0  0  0  0  0  0  0  0
    6.2753   -1.0883    0.5871 C   0  0  0  0  0  0  0  0  0  0  0  0
    7.2326   -0.5236    1.2305 O   0  0  0  0  0  0  0  0  0  0  0  0
    6.3154   -2.5089    0.5353 C   0  0  0  0  0  0  0  0  0  0  0  0
    5.4831   -3.3395   -0.0326 C   0  0  0  0  0  0  0  0  0  0  0  0
    1.9292    1.9448    0.1543 C   0  0  0  0  0  0  0  0  0  0  0  0
    0.5749    1.8756    0.4725 C   0  0  0  0  0  0  0  0  0  0  0  0
   -0.0381    2.7332    1.3626 C   0  0  0  0  0  0  0  0  0  0  0  0
   -1.4283    2.5798    1.6218 N   0  0  0  0  0  0  0  0  0  0  0  0
    0.7120    3.6799    1.9484 N   0  0  0  0  0  0  0  0  0  0  0  0
    2.0150    3.7539    1.6483 C   0  0  0  0  0  0  0  0  0  0  0  0
    2.6177    2.9264    0.7866 N   0  0  0  0  0  0  0  0  0  0  0  0
   -4.1662   -4.4404    1.9993 H   0  0  0  0  0  0  0  0  0  0  0  0
   -3.5492   -4.4275    0.2819 H   0  0  0  0  0  0  0  0  0  0  0  0
   -4.8415   -5.5809    0.8008 H   0  0  0  0  0  0  0  0  0  0  0  0
   -3.1206   -2.4287    0.3999 H   0  0  0  0  0  0  0  0  0  0  0  0
   -4.6740    1.3031   -0.8633 H   0  0  0  0  0  0  0  0  0  0  0  0
   -6.4268    2.0316   -2.1865 H   0  0  0  0  0  0  0  0  0  0  0  0
   -7.9796    2.4260   -1.3857 H   0  0  0  0  0  0  0  0  0  0  0  0
   -6.4662    2.5014   -0.4482 H   0  0  0  0  0  0  0  0  0  0  0  0
   -7.3053   -1.9601   -0.0957 H   0  0  0  0  0  0  0  0  0  0  0  0
    3.4174    0.6680   -2.4157 H   0  0  0  0  0  0  0  0  0  0  0  0
    5.3263    1.8153   -1.8753 H   0  0  0  0  0  0  0  0  0  0  0  0
    4.2400    2.7841   -0.8866 H   0  0  0  0  0  0  0  0  0  0  0  0
    6.4358    1.5368    0.1360 H   0  0  0  0  0  0  0  0  0  0  0  0
    4.9438    1.4542    1.1476 H   0  0  0  0  0  0  0  0  0  0  0  0
    3.3909   -1.1605   -0.2614 H   0  0  0  0  0  0  0  0  0  0  0  0
    4.5141   -1.1298   -1.6920 H   0  0  0  0  0  0  0  0  0  0  0  0
    7.1738   -3.0331    1.0461 H   0  0  0  0  0  0  0  0  0  0  0  0
    4.5999   -3.1002   -0.5738 H   0  0  0  0  0  0  0  0  0  0  0  0
    5.7085   -4.4307    0.0487 H   0  0  0  0  0  0  0  0  0  0  0  0
   -1.7998    1.8568    2.2886 H   0  0  0  0  0  0  0  0  0  0  0  0
   -2.1446    3.1804    1.1599 H   0  0  0  0  0  0  0  0  0  0  0  0
    2.6049    4.5165    2.1249 H   0  0  0  0  0  0  0  0  0  0  0  0
  1  2  1  0
  2  3  1  0
  3  4  2  0
  4  5  1  0
  5  6  2  0
  6  7  1  0
  7  8  1  0
  8  9  1  0
  7 10  2  0
  3 10  1  0
  5 11  1  0
 11 12  3  0
 12 13  1  0
 13 14  2  0
 14 15  1  0
 16 15  1  0
 16 17  1  0
 17 18  1  0
 18 19  1  0
 19 20  1  0
 16 20  1  0
 19 21  1  0
 21 22  2  0
 21 23  1  0
 23 24  2  3
 15 25  1  0
 25 26  2  0
 13 26  1  0
 26 27  1  0
 27 28  1  0
 27 29  2  0
 29 30  1  0
 30 31  2  0
 25 31  1  0
  1 32  1  0
  1 33  1  0
  1 34  1  0
  4 35  1  0
  6 36  1  0
  9 37  1  0
  9 38  1  0
  9 39  1  0
 10 40  1  0
 16 41  1  6
 17 42  1  0
 17 43  1  0
 18 44  1  0
 18 45  1  0
 20 46  1  0
 20 47  1  0
 23 48  1  0
 24 49  1  0
 24 50  1  0
 28 51  1  0
 28 52  1  0
 30 53  1  0
M  END

