404772666
     RDKit          3D

 64 69  0  0  1  0  0  0  0  0999 V2000
    3.3286    1.2246    4.1613 C   0  0  0  0  0  0  0  0  0  0  0  0
    4.6151    1.2348    3.8258 N   0  0  0  0  0  0  0  0  0  0  0  0
    5.0620    0.7740    2.6822 N   0  0  0  0  0  0  0  0  0  0  0  0
    4.1670    0.2632    1.8013 C   0  0  0  0  0  0  0  0  0  0  0  0
    2.8067    0.2233    2.0912 C   0  0  0  0  0  0  0  0  0  0  0  0
    2.4495    0.7229    3.2960 N   0  0  0  0  0  0  0  0  0  0  0  0
    6.3102    0.6836    2.1364 C   0  0  0  0  0  0  0  0  0  0  0  0
    4.8815   -0.1492    0.6918 C   0  0  0  0  0  0  0  0  0  0  0  0
    6.2241    0.1055    0.8823 C   0  0  0  0  0  0  0  0  0  0  0  0
    7.3245   -0.1720   -0.0358 C   0  0  0  0  0  0  0  0  0  0  0  0
    8.5001    0.5330   -0.1996 C   0  0  0  0  0  0  0  0  0  0  0  0
    9.2513   -0.0521   -1.1492 N   0  0  0  0  0  0  0  0  0  0  0  0
    8.5923   -1.0944   -1.5851 N   0  0  0  0  0  0  0  0  0  0  0  0
    7.4077   -1.2157   -0.9395 C   0  0  0  0  0  0  0  0  0  0  0  0
   10.5685    0.4389   -1.5766 C   0  0  0  0  0  0  0  0  0  0  0  0
    1.9057   -0.3117    1.1550 N   0  0  0  0  0  0  0  0  0  0  0  0
    1.7863    0.2720   -0.1509 C   0  0  0  0  0  0  0  0  0  0  0  0
    0.3687    0.7803   -0.2953 C   0  0  0  0  0  0  0  0  0  0  0  0
   -0.6005   -0.1371    0.2608 N   0  0  0  0  0  0  0  0  0  0  0  0
   -0.3415   -1.0847    1.3131 C   0  0  0  0  0  0  0  0  0  0  0  0
    1.0971   -1.4464    1.4952 C   0  0  0  0  0  0  0  0  0  0  0  0
   -1.9441   -0.1128   -0.2682 C   0  0  0  0  0  0  0  0  0  0  0  0
   -2.8952   -0.9614    0.1593 N   0  0  0  0  0  0  0  0  0  0  0  0
   -4.1510   -0.9366   -0.3330 C   0  0  0  0  0  0  0  0  0  0  0  0
   -4.5141   -0.0304   -1.3043 C   0  0  0  0  0  0  0  0  0  0  0  0
   -3.5389    0.8414   -1.7441 C   0  0  0  0  0  0  0  0  0  0  0  0
   -2.2947    0.7743   -1.2173 N   0  0  0  0  0  0  0  0  0  0  0  0
   -5.8939    0.0025   -1.8507 C   0  0  2  0  0  0  0  0  0  0  0  0
   -6.9031    0.3234   -0.8226 C   0  0  0  0  0  0  0  0  0  0  0  0
   -6.8930    1.5192   -0.1374 C   0  0  0  0  0  0  0  0  0  0  0  0
   -7.8549    1.7714    0.8095 C   0  0  0  0  0  0  0  0  0  0  0  0
   -8.8513    0.8414    1.0998 C   0  0  0  0  0  0  0  0  0  0  0  0
   -8.8716   -0.3591    0.4205 C   0  0  0  0  0  0  0  0  0  0  0  0
   -7.8990   -0.5765   -0.5153 C   0  0  0  0  0  0  0  0  0  0  0  0
   -9.8057    1.1020    2.0447 F   0  0  0  0  0  0  0  0  0  0  0  0
   -6.1937   -1.2975   -2.4262 N   0  0  0  0  0  0  0  0  0  0  0  0
   -6.0259    1.0107   -2.9702 C   0  0  0  0  0  0  0  0  0  0  0  0
    3.0186    1.6197    5.1214 H   0  0  0  0  0  0  0  0  0  0  0  0
    7.2300    1.0109    2.6045 H   0  0  0  0  0  0  0  0  0  0  0  0
    4.4313   -0.6030   -0.1860 H   0  0  0  0  0  0  0  0  0  0  0  0
    8.7369    1.4228    0.3772 H   0  0  0  0  0  0  0  0  0  0  0  0
    6.6408   -1.9584   -1.0639 H   0  0  0  0  0  0  0  0  0  0  0  0
   11.1954   -0.4227   -1.8074 H   0  0  0  0  0  0  0  0  0  0  0  0
   10.4428    1.0439   -2.4985 H   0  0  0  0  0  0  0  0  0  0  0  0
   10.9930    1.1092   -0.8025 H   0  0  0  0  0  0  0  0  0  0  0  0
    2.4806    1.1188   -0.3118 H   0  0  0  0  0  0  0  0  0  0  0  0
    2.0143   -0.5053   -0.8907 H   0  0  0  0  0  0  0  0  0  0  0  0
    0.1613    0.8632   -1.3816 H   0  0  0  0  0  0  0  0  0  0  0  0
    0.2672    1.7921    0.1346 H   0  0  0  0  0  0  0  0  0  0  0  0
   -0.8994   -2.0385    1.1415 H   0  0  0  0  0  0  0  0  0  0  0  0
   -0.7061   -0.6179    2.2648 H   0  0  0  0  0  0  0  0  0  0  0  0
    1.4175   -2.2998    0.8592 H   0  0  0  0  0  0  0  0  0  0  0  0
    1.2356   -1.7029    2.5855 H   0  0  0  0  0  0  0  0  0  0  0  0
   -4.9243   -1.6212    0.0093 H   0  0  0  0  0  0  0  0  0  0  0  0
   -3.7743    1.5599   -2.4942 H   0  0  0  0  0  0  0  0  0  0  0  0
   -6.1432    2.2811   -0.3202 H   0  0  0  0  0  0  0  0  0  0  0  0
   -7.9044    2.6919    1.3847 H   0  0  0  0  0  0  0  0  0  0  0  0
   -9.6182   -1.1296    0.5947 H   0  0  0  0  0  0  0  0  0  0  0  0
   -7.9204   -1.5366   -1.0546 H   0  0  0  0  0  0  0  0  0  0  0  0
   -5.5962   -1.9958   -1.9288 H   0  0  0  0  0  0  0  0  0  0  0  0
   -5.8245   -1.3015   -3.4239 H   0  0  0  0  0  0  0  0  0  0  0  0
   -5.7746    2.0379   -2.6420 H   0  0  0  0  0  0  0  0  0  0  0  0
   -7.0637    0.9691   -3.3187 H   0  0  0  0  0  0  0  0  0  0  0  0
   -5.2908    0.7342   -3.7575 H   0  0  0  0  0  0  0  0  0  0  0  0
  1  2  2  0
  2  3  1  0
  3  4  1  0
  4  5  1  0
  1  6  1  0
  5  6  2  0
  3  7  1  0
  4  8  2  0
  8  9  1  0
  7  9  2  0
  9 10  1  0
 10 11  2  0
 11 12  1  0
 12 13  1  0
 13 14  2  0
 10 14  1  0
 12 15  1  0
  5 16  1  0
 16 17  1  0
 17 18  1  0
 18 19  1  0
 19 20  1  0
 20 21  1  0
 16 21  1  0
 19 22  1  0
 22 23  2  0
 23 24  1  0
 24 25  2  0
 25 26  1  0
 26 27  2  0
 22 27  1  0
 25 28  1  0
 28 29  1  0
 29 30  2  0
 30 31  1  0
 31 32  2  0
 32 33  1  0
 33 34  2  0
 29 34  1  0
 32 35  1  0
 28 36  1  6
 28 37  1  0
  1 38  1  0
  7 39  1  0
  8 40  1  0
 11 41  1  0
 14 42  1  0
 15 43  1  0
 15 44  1  0
 15 45  1  0
 17 46  1  0
 17 47  1  0
 18 48  1  0
 18 49  1  0
 20 50  1  0
 20 51  1  0
 21 52  1  0
 21 53  1  0
 24 54  1  0
 26 55  1  0
 30 56  1  0
 31 57  1  0
 33 58  1  0
 34 59  1  0
 36 60  1  0
 36 61  1  0
 37 62  1  0
 37 63  1  0
 37 64  1  0
M  END

