404771572
     RDKit          3D

112111  0  0  1  0  0  0  0  0999 V2000
    1.1791    0.9240   -1.0511 N   0  0  0  0  0  0  0  0  0  0  0  0
    1.9378   -0.2380   -0.7559 C   0  0  0  0  0  0  0  0  0  0  0  0
    3.2230   -0.5822   -1.3496 C   0  0  0  0  0  0  0  0  0  0  0  0
    3.9149   -1.6805   -0.5912 C   0  0  0  0  0  0  0  0  0  0  0  0
    4.1887   -1.1498    0.8054 C   0  0  0  0  0  0  0  0  0  0  0  0
    4.9132   -2.2278    1.5786 C   0  0  0  0  0  0  0  0  0  0  0  0
    5.2222   -1.7932    2.9859 C   0  0  0  0  0  0  0  0  0  0  0  0
    6.0572   -0.5505    3.0103 C   0  0  0  0  0  0  0  0  0  0  0  0
    1.4214   -1.0333    0.1133 O   0  0  0  0  0  0  0  0  0  0  0  0
    7.3888   -0.7626    2.2695 C   0  0  0  0  0  0  0  0  0  0  0  0
   11.6148   -0.9661    1.3221 C   0  0  0  0  0  0  0  0  0  0  0  0
   11.0802    0.3376   -2.8865 C   0  0  0  0  0  0  0  0  0  0  0  0
    9.6441    0.5340   -2.5341 C   0  0  0  0  0  0  0  0  0  0  0  0
    9.4355    1.0879   -1.1889 C   0  0  0  0  0  0  0  0  0  0  0  0
    9.8247    0.2677   -0.0046 C   0  0  0  0  0  0  0  0  0  0  0  0
   11.2204   -0.1406    0.1600 C   0  0  0  0  0  0  0  0  0  0  0  0
    9.3579   -1.6343    3.3696 C   0  0  0  0  0  0  0  0  0  0  0  0
   10.1171   -0.3801    3.3510 C   0  0  0  0  0  0  0  0  0  0  0  0
    8.1735   -1.8233    2.9023 C   0  0  0  0  0  0  0  0  0  0  0  0
   11.4367   -0.5546    2.6950 C   0  0  0  0  0  0  0  0  0  0  0  0
   -5.7184   -0.8059   -1.5069 C   0  0  0  0  0  0  0  0  0  0  0  0
   -6.6423   -1.9871   -1.4175 C   0  0  0  0  0  0  0  0  0  0  0  0
   -8.0102   -1.5706   -0.8794 C   0  0  0  0  0  0  0  0  0  0  0  0
   -4.5781    1.0753   -0.3380 C   0  0  0  0  0  0  0  0  0  0  0  0
   -5.5006   -0.1216   -0.1639 C   0  0  0  0  0  0  0  0  0  0  0  0
   -2.4164    1.9685   -1.0079 C   0  0  2  0  0  0  0  0  0  0  0  0
   -3.2083    0.6900   -0.8455 C   0  0  0  0  0  0  0  0  0  0  0  0
   -1.0274    1.7400   -1.4865 C   0  0  2  0  0  0  0  0  0  0  0  0
   -0.0971    1.2090   -0.4301 C   0  0  2  0  0  0  0  0  0  0  0  0
    0.2122    2.2885    0.6120 C   0  0  0  0  0  0  0  0  0  0  0  0
   -0.5143    2.9273   -2.0065 O   0  0  0  0  0  0  0  0  0  0  0  0
    1.1560    1.6887    1.4818 O   0  0  0  0  0  0  0  0  0  0  0  0
   -8.6382   -0.5216   -1.7303 C   0  0  0  0  0  0  0  0  0  0  0  0
   -9.9942   -0.1142   -1.1308 C   0  0  0  0  0  0  0  0  0  0  0  0
  -10.9355   -1.2520   -1.0734 C   0  0  0  0  0  0  0  0  0  0  0  0
  -12.2642   -1.0656   -0.4927 C   0  0  0  0  0  0  0  0  0  0  0  0
  -13.2713   -0.1433   -1.0153 C   0  0  0  0  0  0  0  0  0  0  0  0
  -13.0065    1.3198   -1.0295 C   0  0  0  0  0  0  0  0  0  0  0  0
  -12.6903    1.8043    0.3793 C   0  0  0  0  0  0  0  0  0  0  0  0
  -13.8728    1.5244    1.2679 C   0  0  0  0  0  0  0  0  0  0  0  0
   -2.5633    2.8726    0.0137 O   0  0  0  0  0  0  0  0  0  0  0  0
    1.5573    1.5993   -1.7415 H   0  0  0  0  0  0  0  0  0  0  0  0
    3.8818    0.3359   -1.4240 H   0  0  0  0  0  0  0  0  0  0  0  0
    3.0422   -0.8581   -2.4210 H   0  0  0  0  0  0  0  0  0  0  0  0
    4.8211   -2.0417   -1.0860 H   0  0  0  0  0  0  0  0  0  0  0  0
    3.2028   -2.5302   -0.5144 H   0  0  0  0  0  0  0  0  0  0  0  0
    3.3032   -0.8040    1.3154 H   0  0  0  0  0  0  0  0  0  0  0  0
    4.9125   -0.2854    0.7427 H   0  0  0  0  0  0  0  0  0  0  0  0
    5.7667   -2.5587    0.9941 H   0  0  0  0  0  0  0  0  0  0  0  0
    4.1846   -3.0969    1.6245 H   0  0  0  0  0  0  0  0  0  0  0  0
    4.2592   -1.5274    3.5091 H   0  0  0  0  0  0  0  0  0  0  0  0
    5.6747   -2.5780    3.5946 H   0  0  0  0  0  0  0  0  0  0  0  0
    5.4806    0.2776    2.5653 H   0  0  0  0  0  0  0  0  0  0  0  0
    6.2698   -0.2228    4.0573 H   0  0  0  0  0  0  0  0  0  0  0  0
    7.1120   -1.1011    1.2501 H   0  0  0  0  0  0  0  0  0  0  0  0
    7.8994    0.1885    2.1388 H   0  0  0  0  0  0  0  0  0  0  0  0
   11.2453   -2.0279    1.1159 H   0  0  0  0  0  0  0  0  0  0  0  0
   12.7485   -1.1354    1.1823 H   0  0  0  0  0  0  0  0  0  0  0  0
   11.2984   -0.7394   -3.0007 H   0  0  0  0  0  0  0  0  0  0  0  0
   11.8050    0.8899   -2.2608 H   0  0  0  0  0  0  0  0  0  0  0  0
   11.2387    0.8279   -3.9187 H   0  0  0  0  0  0  0  0  0  0  0  0
    9.1491    1.2072   -3.3059 H   0  0  0  0  0  0  0  0  0  0  0  0
    9.0597   -0.4336   -2.6762 H   0  0  0  0  0  0  0  0  0  0  0  0
    9.9689    2.0901   -1.0582 H   0  0  0  0  0  0  0  0  0  0  0  0
    8.3292    1.3349   -1.0199 H   0  0  0  0  0  0  0  0  0  0  0  0
    9.1082   -0.5925    0.0193 H   0  0  0  0  0  0  0  0  0  0  0  0
    9.6116    0.9837    0.8768 H   0  0  0  0  0  0  0  0  0  0  0  0
   11.4840   -0.7960   -0.7432 H   0  0  0  0  0  0  0  0  0  0  0  0
   11.9434    0.7101    0.0917 H   0  0  0  0  0  0  0  0  0  0  0  0
    9.8769   -2.5035    3.8460 H   0  0  0  0  0  0  0  0  0  0  0  0
   10.3957   -0.2291    4.4697 H   0  0  0  0  0  0  0  0  0  0  0  0
    9.5657    0.5324    3.1442 H   0  0  0  0  0  0  0  0  0  0  0  0
    7.7253   -2.8474    2.9850 H   0  0  0  0  0  0  0  0  0  0  0  0
   12.1053    0.3492    2.8737 H   0  0  0  0  0  0  0  0  0  0  0  0
   11.9845   -1.3360    3.3450 H   0  0  0  0  0  0  0  0  0  0  0  0
   -5.9637   -0.0920   -2.2959 H   0  0  0  0  0  0  0  0  0  0  0  0
   -4.7130   -1.2442   -1.7837 H   0  0  0  0  0  0  0  0  0  0  0  0
   -6.2245   -2.7163   -0.7218 H   0  0  0  0  0  0  0  0  0  0  0  0
   -6.7024   -2.4306   -2.4187 H   0  0  0  0  0  0  0  0  0  0  0  0
   -7.9340   -1.3514    0.1839 H   0  0  0  0  0  0  0  0  0  0  0  0
   -8.6232   -2.5160   -0.9945 H   0  0  0  0  0  0  0  0  0  0  0  0
   -5.0818    1.7878   -1.0224 H   0  0  0  0  0  0  0  0  0  0  0  0
   -4.4953    1.5832    0.6469 H   0  0  0  0  0  0  0  0  0  0  0  0
   -6.4651    0.2597    0.2006 H   0  0  0  0  0  0  0  0  0  0  0  0
   -5.0024   -0.8157    0.5493 H   0  0  0  0  0  0  0  0  0  0  0  0
   -2.9401    2.4796   -1.8998 H   0  0  0  0  0  0  0  0  0  0  0  0
   -2.7207   -0.0781   -0.2495 H   0  0  0  0  0  0  0  0  0  0  0  0
   -3.3661    0.2289   -1.8681 H   0  0  0  0  0  0  0  0  0  0  0  0
   -1.0721    1.0188   -2.3269 H   0  0  0  0  0  0  0  0  0  0  0  0
   -0.4334    0.3402    0.1187 H   0  0  0  0  0  0  0  0  0  0  0  0
    0.7185    3.1575    0.1652 H   0  0  0  0  0  0  0  0  0  0  0  0
   -0.6348    2.5439    1.2434 H   0  0  0  0  0  0  0  0  0  0  0  0
    0.0584    2.7282   -2.8091 H   0  0  0  0  0  0  0  0  0  0  0  0
    0.6884    1.0434    2.0827 H   0  0  0  0  0  0  0  0  0  0  0  0
   -8.7854   -0.9255   -2.7520 H   0  0  0  0  0  0  0  0  0  0  0  0
   -8.0365    0.4234   -1.7572 H   0  0  0  0  0  0  0  0  0  0  0  0
  -10.3385    0.7817   -1.6779 H   0  0  0  0  0  0  0  0  0  0  0  0
   -9.7612    0.2444   -0.0980 H   0  0  0  0  0  0  0  0  0  0  0  0
  -10.4282   -2.0582   -0.4398 H   0  0  0  0  0  0  0  0  0  0  0  0
  -11.0303   -1.7764   -2.0708 H   0  0  0  0  0  0  0  0  0  0  0  0
  -12.7143   -2.1314   -0.4171 H   0  0  0  0  0  0  0  0  0  0  0  0
  -12.1530   -0.8226    0.6252 H   0  0  0  0  0  0  0  0  0  0  0  0
  -13.5988   -0.4771   -2.0641 H   0  0  0  0  0  0  0  0  0  0  0  0
  -14.2377   -0.3469   -0.4322 H   0  0  0  0  0  0  0  0  0  0  0  0
  -14.0306    1.8106   -1.3105 H   0  0  0  0  0  0  0  0  0  0  0  0
  -12.2752    1.6734   -1.7271 H   0  0  0  0  0  0  0  0  0  0  0  0
  -11.7685    1.3204    0.7564 H   0  0  0  0  0  0  0  0  0  0  0  0
  -12.4896    2.8900    0.3954 H   0  0  0  0  0  0  0  0  0  0  0  0
  -13.7161    2.0436    2.2552 H   0  0  0  0  0  0  0  0  0  0  0  0
  -14.7664    2.0406    0.8156 H   0  0  0  0  0  0  0  0  0  0  0  0
  -14.0227    0.4500    1.4117 H   0  0  0  0  0  0  0  0  0  0  0  0
   -2.7208    3.7997   -0.2861 H   0  0  0  0  0  0  0  0  0  0  0  0
  2  3  1  0
  1  2  1  0
  2  9  2  0
  3  4  1  0
  4  5  1  0
  5  6  1  0
  6  7  1  0
  7  8  1  0
  8 10  1  0
 12 13  1  0
 13 14  1  0
 14 15  1  0
 15 16  1  0
 11 16  1  0
 17 18  1  0
 17 19  2  0
 18 20  1  0
 10 19  1  0
 11 20  1  0
 21 22  1  0
 22 23  1  0
 24 25  1  0
 21 25  1  0
 26 27  1  0
 24 27  1  0
 26 28  1  0
 28 31  1  0
 28 29  1  0
 29  1  1  0
 29 30  1  0
 30 32  1  0
 23 33  1  0
 33 34  1  0
 34 35  1  0
 35 36  1  0
 36 37  1  0
 37 38  1  0
 38 39  1  0
 39 40  1  0
 26 41  1  0
  1 42  1  0
  3 43  1  0
  3 44  1  0
  4 45  1  0
  4 46  1  0
  5 47  1  0
  5 48  1  0
  6 49  1  0
  6 50  1  0
  7 51  1  0
  7 52  1  0
  8 53  1  0
  8 54  1  0
 10 55  1  0
 10 56  1  0
 11 57  1  0
 11 58  1  0
 12 59  1  0
 12 60  1  0
 12 61  1  0
 13 62  1  0
 13 63  1  0
 14 64  1  0
 14 65  1  0
 15 66  1  0
 15 67  1  0
 16 68  1  0
 16 69  1  0
 17 70  1  0
 18 71  1  0
 18 72  1  0
 19 73  1  0
 20 74  1  0
 20 75  1  0
 21 76  1  0
 21 77  1  0
 22 78  1  0
 22 79  1  0
 23 80  1  0
 23 81  1  0
 24 82  1  0
 24 83  1  0
 25 84  1  0
 25 85  1  0
 26 86  1  6
 27 87  1  0
 27 88  1  0
 28 89  1  6
 29 90  1  1
 30 91  1  0
 30 92  1  0
 31 93  1  0
 32 94  1  0
 33 95  1  0
 33 96  1  0
 34 97  1  0
 34 98  1  0
 35 99  1  0
 35100  1  0
 36101  1  0
 36102  1  0
 37103  1  0
 37104  1  0
 38105  1  0
 38106  1  0
 39107  1  0
 39108  1  0
 40109  1  0
 40110  1  0
 40111  1  0
 41112  1  0
M  END

