404770571
     RDKit          3D

 85 91  0  0  1  0  0  0  0  0999 V2000
   -1.9279   -0.4477    0.6830 O   0  0  0  0  0  0  0  0  0  0  0  0
   -2.6429    0.6799    0.2820 C   0  0  2  0  0  0  0  0  0  0  0  0
   -3.2914    0.4036   -0.9527 N   0  0  0  0  0  0  0  0  0  0  0  0
   -2.2558    0.3385   -1.9205 C   0  0  0  0  0  0  0  0  0  0  0  0
   -1.0793    0.9779   -1.2290 C   0  0  1  0  0  0  0  0  0  0  0  0
   -1.6541    1.6108   -0.1224 O   0  0  0  0  0  0  0  0  0  0  0  0
   -0.1522    0.0025   -0.7537 N   0  0  0  0  0  0  0  0  0  0  0  0
    1.0135    0.4518   -0.0744 C   0  0  0  0  0  0  0  0  0  0  0  0
    1.2480    1.6798    0.1177 O   0  0  0  0  0  0  0  0  0  0  0  0
    2.0268   -0.5132    0.4499 C   0  0  2  0  0  0  0  0  0  0  0  0
    3.1553    0.1840    1.1235 C   0  0  0  0  0  0  0  0  0  0  0  0
    4.3646   -0.7013    1.0760 C   0  0  2  0  0  0  0  0  0  0  0  0
    5.5251   -0.1737    1.8298 C   0  0  0  0  0  0  0  0  0  0  0  0
    6.7856   -0.5264    1.3997 C   0  0  0  0  0  0  0  0  0  0  0  0
    7.0665   -1.3263    0.3305 C   0  0  0  0  0  0  0  0  0  0  0  0
    5.9041   -1.8712   -0.4473 C   0  0  0  0  0  0  0  0  0  0  0  0
    4.7713   -0.8603   -0.3628 C   0  0  1  0  0  0  0  0  0  0  0  0
    3.6915   -1.1819   -1.2370 N   0  0  0  0  0  0  0  0  0  0  0  0
    2.4556   -1.4889   -0.6093 C   0  0  0  0  0  0  0  0  0  0  0  0
    3.5968   -0.3840   -2.4142 C   0  0  0  0  0  0  0  0  0  0  0  0
    8.4405   -1.4171    0.2582 C   0  0  0  0  0  0  0  0  0  0  0  0
    8.9728   -0.6915    1.2570 N   0  0  0  0  0  0  0  0  0  0  0  0
    7.9584   -0.1314    1.9758 C   0  0  0  0  0  0  0  0  0  0  0  0
    7.8591    0.6890    3.0795 C   0  0  0  0  0  0  0  0  0  0  0  0
    6.6099    1.0689    3.5467 C   0  0  0  0  0  0  0  0  0  0  0  0
    5.4386    0.6480    2.9358 C   0  0  0  0  0  0  0  0  0  0  0  0
   -0.4987    1.9596   -2.2077 C   0  0  0  0  0  0  0  0  0  0  0  0
   -0.0782    1.1758   -3.4393 C   0  0  0  0  0  0  0  0  0  0  0  0
   -1.6411    2.8910   -2.6347 C   0  0  0  0  0  0  0  0  0  0  0  0
   -2.2658   -0.1261   -3.0796 O   0  0  0  0  0  0  0  0  0  0  0  0
   -4.7567    0.2358   -1.1013 C   0  0  1  0  0  0  0  0  0  0  0  0
   -5.1669   -1.1196   -0.6806 C   0  0  1  0  0  0  0  0  0  0  0  0
   -6.6192   -1.3930   -0.8342 C   0  0  0  0  0  0  0  0  0  0  0  0
   -7.5861   -0.5720   -0.0708 C   0  0  0  0  0  0  0  0  0  0  0  0
   -4.4293   -2.2076   -1.4661 C   0  0  0  0  0  0  0  0  0  0  0  0
   -5.3891    1.2804   -0.2212 C   0  0  0  0  0  0  0  0  0  0  0  0
   -4.8691    1.3802    1.0996 N   0  0  0  0  0  0  0  0  0  0  0  0
   -3.4699    1.1770    1.3988 C   0  0  1  0  0  0  0  0  0  0  0  0
   -3.5316    0.2591    2.5973 C   0  0  0  0  0  0  0  0  0  0  0  0
   -4.8695    0.5941    3.2458 C   0  0  0  0  0  0  0  0  0  0  0  0
   -5.4981    1.6782    2.3643 C   0  0  0  0  0  0  0  0  0  0  0  0
   -6.3033    2.0390   -0.5646 O   0  0  0  0  0  0  0  0  0  0  0  0
   -2.4429   -1.2871    0.6213 H   0  0  0  0  0  0  0  0  0  0  0  0
   -0.2835   -1.0189   -0.8774 H   0  0  0  0  0  0  0  0  0  0  0  0
    1.4833   -1.1217    1.2306 H   0  0  0  0  0  0  0  0  0  0  0  0
    2.8410    0.4063    2.1736 H   0  0  0  0  0  0  0  0  0  0  0  0
    3.3800    1.1868    0.6787 H   0  0  0  0  0  0  0  0  0  0  0  0
    4.0893   -1.6863    1.5020 H   0  0  0  0  0  0  0  0  0  0  0  0
    5.5762   -2.8497   -0.0627 H   0  0  0  0  0  0  0  0  0  0  0  0
    6.2043   -1.9342   -1.5118 H   0  0  0  0  0  0  0  0  0  0  0  0
    5.2035    0.1079   -0.6994 H   0  0  0  0  0  0  0  0  0  0  0  0
    2.4842   -2.5389   -0.2478 H   0  0  0  0  0  0  0  0  0  0  0  0
    1.6587   -1.4736   -1.4015 H   0  0  0  0  0  0  0  0  0  0  0  0
    2.5817   -0.1705   -2.7624 H   0  0  0  0  0  0  0  0  0  0  0  0
    4.2015   -0.8884   -3.2211 H   0  0  0  0  0  0  0  0  0  0  0  0
    4.1237    0.5932   -2.2505 H   0  0  0  0  0  0  0  0  0  0  0  0
    8.9610   -1.9866   -0.4914 H   0  0  0  0  0  0  0  0  0  0  0  0
    9.9854   -0.5711    1.4570 H   0  0  0  0  0  0  0  0  0  0  0  0
    8.7813    1.0218    3.5624 H   0  0  0  0  0  0  0  0  0  0  0  0
    6.5154    1.7108    4.4095 H   0  0  0  0  0  0  0  0  0  0  0  0
    4.4671    0.9303    3.2820 H   0  0  0  0  0  0  0  0  0  0  0  0
    0.2934    2.5931   -1.8078 H   0  0  0  0  0  0  0  0  0  0  0  0
   -0.8326    1.2960   -4.2631 H   0  0  0  0  0  0  0  0  0  0  0  0
    0.9029    1.5763   -3.7511 H   0  0  0  0  0  0  0  0  0  0  0  0
    0.0793    0.1043   -3.2113 H   0  0  0  0  0  0  0  0  0  0  0  0
   -2.2026    3.2464   -1.7235 H   0  0  0  0  0  0  0  0  0  0  0  0
   -2.3326    2.3608   -3.3260 H   0  0  0  0  0  0  0  0  0  0  0  0
   -1.2661    3.7812   -3.1540 H   0  0  0  0  0  0  0  0  0  0  0  0
   -5.0938    0.4356   -2.1289 H   0  0  0  0  0  0  0  0  0  0  0  0
   -4.8239   -1.2602    0.3812 H   0  0  0  0  0  0  0  0  0  0  0  0
   -6.8480   -2.4923   -0.6217 H   0  0  0  0  0  0  0  0  0  0  0  0
   -6.9262   -1.3289   -1.9350 H   0  0  0  0  0  0  0  0  0  0  0  0
   -7.1840   -0.0870    0.8212 H   0  0  0  0  0  0  0  0  0  0  0  0
   -8.1670    0.1597   -0.6790 H   0  0  0  0  0  0  0  0  0  0  0  0
   -8.3959   -1.2712    0.3245 H   0  0  0  0  0  0  0  0  0  0  0  0
   -3.3434   -2.0666   -1.4600 H   0  0  0  0  0  0  0  0  0  0  0  0
   -4.6556   -3.1694   -0.9410 H   0  0  0  0  0  0  0  0  0  0  0  0
   -4.8772   -2.2848   -2.4651 H   0  0  0  0  0  0  0  0  0  0  0  0
   -3.0713    2.1613    1.7307 H   0  0  0  0  0  0  0  0  0  0  0  0
   -2.6851    0.5481    3.2562 H   0  0  0  0  0  0  0  0  0  0  0  0
   -3.4902   -0.8140    2.3178 H   0  0  0  0  0  0  0  0  0  0  0  0
   -4.6590    0.9865    4.2562 H   0  0  0  0  0  0  0  0  0  0  0  0
   -5.4802   -0.3136    3.2881 H   0  0  0  0  0  0  0  0  0  0  0  0
   -6.5847    1.6468    2.3613 H   0  0  0  0  0  0  0  0  0  0  0  0
   -5.0752    2.6433    2.7116 H   0  0  0  0  0  0  0  0  0  0  0  0
  2  1  1  1
  2  3  1  0
  2  6  1  0
  2 38  1  0
  3  4  1  0
 31  3  1  0
  4  5  1  0
  4 30  2  0
  5  7  1  1
  5 27  1  0
  5  6  1  0
  7  8  1  0
  8  9  2  0
 10  8  1  0
 10 11  1  0
 10 19  1  0
 11 12  1  0
 12 13  1  0
 12 17  1  0
 13 14  2  0
 13 26  1  0
 14 15  1  0
 14 23  1  0
 15 21  2  0
 15 16  1  0
 16 17  1  0
 17 18  1  0
 18 20  1  0
 18 19  1  0
 21 22  1  0
 22 23  1  0
 23 24  2  0
 24 25  1  0
 25 26  2  0
 27 28  1  0
 27 29  1  0
 31 32  1  0
 31 36  1  0
 32 33  1  0
 32 35  1  0
 33 34  1  0
 36 42  2  0
 36 37  1  0
 37 41  1  0
 37 38  1  0
 38 39  1  0
 39 40  1  0
 40 41  1  0
  1 43  1  0
  7 44  1  0
 10 45  1  1
 11 46  1  0
 11 47  1  0
 12 48  1  1
 16 49  1  0
 16 50  1  0
 17 51  1  6
 19 52  1  0
 19 53  1  0
 20 54  1  0
 20 55  1  0
 20 56  1  0
 21 57  1  0
 22 58  1  0
 24 59  1  0
 25 60  1  0
 26 61  1  0
 27 62  1  0
 28 63  1  0
 28 64  1  0
 28 65  1  0
 29 66  1  0
 29 67  1  0
 29 68  1  0
 31 69  1  6
 32 70  1  1
 33 71  1  0
 33 72  1  0
 34 73  1  0
 34 74  1  0
 34 75  1  0
 35 76  1  0
 35 77  1  0
 35 78  1  0
 38 79  1  1
 39 80  1  0
 39 81  1  0
 40 82  1  0
 40 83  1  0
 41 84  1  0
 41 85  1  0
M  END

