404770328
     RDKit          3D

 39 40  0  0  1  0  0  0  0  0999 V2000
    5.5415    1.3225   -1.0681 C   0  0  0  0  0  0  0  0  0  0  0  0
    4.1698    1.5430   -0.4522 C   0  0  0  0  0  0  0  0  0  0  0  0
    3.7620    0.2828    0.2500 C   0  0  0  0  0  0  0  0  0  0  0  0
    2.4208    0.4061    0.8883 C   0  0  0  0  0  0  0  0  0  0  0  0
    2.2482    0.9852    1.9906 O   0  0  0  0  0  0  0  0  0  0  0  0
    1.2723   -0.1169    0.2966 O   0  0  0  0  0  0  0  0  0  0  0  0
   -0.0119   -0.0106    0.8868 C   0  0  1  0  0  0  0  0  0  0  0  0
   -0.8806    0.8723    0.0284 C   0  0  0  0  0  0  0  0  0  0  0  0
   -1.4256    0.2193   -1.1132 N   0  0  0  0  0  0  0  0  0  0  0  0
   -2.5130    1.0781   -1.6098 C   0  0  0  0  0  0  0  0  0  0  0  0
   -3.6813    0.7854   -0.6784 C   0  0  0  0  0  0  0  0  0  0  0  0
   -3.5170   -0.6983   -0.4576 C   0  0  1  0  0  0  0  0  0  0  0  0
   -2.0794   -1.0185   -0.8717 C   0  0  2  0  0  0  0  0  0  0  0  0
   -1.4548   -1.9353    0.1070 C   0  0  2  0  0  0  0  0  0  0  0  0
   -0.6216   -1.3495    1.1693 C   0  0  2  0  0  0  0  0  0  0  0  0
   -1.3470   -1.2742    2.3658 O   0  0  0  0  0  0  0  0  0  0  0  0
   -0.6941   -2.8794   -0.6047 O   0  0  0  0  0  0  0  0  0  0  0  0
   -3.7374   -1.0775    0.8586 O   0  0  0  0  0  0  0  0  0  0  0  0
    5.9029    2.2603   -1.5392 H   0  0  0  0  0  0  0  0  0  0  0  0
    6.2702    1.0148   -0.3163 H   0  0  0  0  0  0  0  0  0  0  0  0
    5.4979    0.5632   -1.8847 H   0  0  0  0  0  0  0  0  0  0  0  0
    4.3200    2.3184    0.3523 H   0  0  0  0  0  0  0  0  0  0  0  0
    3.4355    1.8881   -1.1840 H   0  0  0  0  0  0  0  0  0  0  0  0
    4.4727    0.0493    1.0600 H   0  0  0  0  0  0  0  0  0  0  0  0
    3.7748   -0.5572   -0.4724 H   0  0  0  0  0  0  0  0  0  0  0  0
    0.1453    0.5393    1.8393 H   0  0  0  0  0  0  0  0  0  0  0  0
   -1.6419    1.3679    0.6769 H   0  0  0  0  0  0  0  0  0  0  0  0
   -0.2220    1.6974   -0.3352 H   0  0  0  0  0  0  0  0  0  0  0  0
   -2.7954    0.8401   -2.6373 H   0  0  0  0  0  0  0  0  0  0  0  0
   -2.2602    2.1480   -1.4587 H   0  0  0  0  0  0  0  0  0  0  0  0
   -3.6367    1.3791    0.2422 H   0  0  0  0  0  0  0  0  0  0  0  0
   -4.6438    1.0120   -1.1676 H   0  0  0  0  0  0  0  0  0  0  0  0
   -4.2663   -1.2103   -1.0792 H   0  0  0  0  0  0  0  0  0  0  0  0
   -2.1886   -1.5243   -1.8789 H   0  0  0  0  0  0  0  0  0  0  0  0
   -2.2730   -2.5449    0.5796 H   0  0  0  0  0  0  0  0  0  0  0  0
    0.2254   -2.0344    1.3982 H   0  0  0  0  0  0  0  0  0  0  0  0
   -1.7850   -2.1745    2.4555 H   0  0  0  0  0  0  0  0  0  0  0  0
   -1.0688   -2.9874   -1.5165 H   0  0  0  0  0  0  0  0  0  0  0  0
   -4.7136   -1.1794    0.9677 H   0  0  0  0  0  0  0  0  0  0  0  0
  1  2  1  0
  2  3  1  0
  3  4  1  0
  4  5  2  0
  4  6  1  0
  7  6  1  0
  7  8  1  0
  8  9  1  0
  9 10  1  0
 10 11  1  0
 11 12  1  0
 12 13  1  0
 13  9  1  0
 13 14  1  0
 14 15  1  0
  7 15  1  0
 15 16  1  0
 14 17  1  0
 12 18  1  0
  1 19  1  0
  1 20  1  0
  1 21  1  0
  2 22  1  0
  2 23  1  0
  3 24  1  0
  3 25  1  0
  7 26  1  1
  8 27  1  0
  8 28  1  0
 10 29  1  0
 10 30  1  0
 11 31  1  0
 11 32  1  0
 12 33  1  6
 13 34  1  6
 14 35  1  1
 15 36  1  1
 16 37  1  0
 17 38  1  0
 18 39  1  0
M  END

