404770217
     RDKit          3D

 48 51  0  0  1  0  0  0  0  0999 V2000
    1.4570    3.7662    0.7288 C   0  0  0  0  0  0  0  0  0  0  0  0
    0.2129    3.2026    0.4549 O   0  0  0  0  0  0  0  0  0  0  0  0
   -0.0297    1.8460    0.2869 C   0  0  0  0  0  0  0  0  0  0  0  0
    0.9915    0.9096    0.3833 C   0  0  0  0  0  0  0  0  0  0  0  0
    0.7118   -0.4292    0.2104 C   0  0  0  0  0  0  0  0  0  0  0  0
   -0.5928   -0.7960   -0.0563 C   0  0  0  0  0  0  0  0  0  0  0  0
   -1.6129    0.1410   -0.1525 C   0  0  0  0  0  0  0  0  0  0  0  0
   -1.3317    1.4804    0.0207 C   0  0  0  0  0  0  0  0  0  0  0  0
   -2.3610    2.4170   -0.0770 O   0  0  0  0  0  0  0  0  0  0  0  0
   -2.7182    3.0363   -1.2972 C   0  0  0  0  0  0  0  0  0  0  0  0
   -2.9243   -0.2522   -0.4228 O   0  0  0  0  0  0  0  0  0  0  0  0
   -3.2841   -1.5841   -0.6098 C   0  0  0  0  0  0  0  0  0  0  0  0
   -2.1703   -2.5341   -0.4980 C   0  0  0  0  0  0  0  0  0  0  0  0
   -0.9281   -2.1964   -0.2449 C   0  0  0  0  0  0  0  0  0  0  0  0
   -4.4249   -1.9039    0.3344 C   0  0  0  0  0  0  0  0  0  0  0  0
   -5.6633   -1.0452    0.1110 C   0  0  0  0  0  0  0  0  0  0  0  0
   -5.6560   -2.5290   -0.2033 C   0  0  0  0  0  0  0  0  0  0  0  0
    1.7393   -1.4606    0.2995 C   0  0  0  0  0  0  0  0  0  0  0  0
    3.0854   -0.9729    0.5875 C   0  0  0  0  0  0  0  0  0  0  0  0
    3.7065   -1.0687    1.8142 C   0  0  0  0  0  0  0  0  0  0  0  0
    4.9478   -0.5826    1.9605 N   0  0  0  0  0  0  0  0  0  0  0  0
    5.6505    0.0103    0.9619 C   0  0  0  0  0  0  0  0  0  0  0  0
    5.0513    0.1059   -0.2327 N   0  0  0  0  0  0  0  0  0  0  0  0
    3.8078   -0.3681   -0.4230 C   0  0  0  0  0  0  0  0  0  0  0  0
    3.1919   -0.2522   -1.7109 N   0  0  0  0  0  0  0  0  0  0  0  0
    6.9707    0.5064    1.1907 N   0  0  0  0  0  0  0  0  0  0  0  0
    1.9105    3.2416    1.6062 H   0  0  0  0  0  0  0  0  0  0  0  0
    1.2706    4.8445    0.9998 H   0  0  0  0  0  0  0  0  0  0  0  0
    2.1620    3.7479   -0.1248 H   0  0  0  0  0  0  0  0  0  0  0  0
    1.9916    1.1966    0.5884 H   0  0  0  0  0  0  0  0  0  0  0  0
   -2.5073    2.3133   -2.1037 H   0  0  0  0  0  0  0  0  0  0  0  0
   -3.7818    3.3383   -1.2471 H   0  0  0  0  0  0  0  0  0  0  0  0
   -2.0235    3.8868   -1.4505 H   0  0  0  0  0  0  0  0  0  0  0  0
   -3.6844   -1.6822   -1.6613 H   0  0  0  0  0  0  0  0  0  0  0  0
   -2.3905   -3.5826   -0.6332 H   0  0  0  0  0  0  0  0  0  0  0  0
   -0.1126   -2.9138   -0.1650 H   0  0  0  0  0  0  0  0  0  0  0  0
   -4.1398   -2.0164    1.4011 H   0  0  0  0  0  0  0  0  0  0  0  0
   -5.6552   -0.3249   -0.7433 H   0  0  0  0  0  0  0  0  0  0  0  0
   -6.2564   -0.7253    0.9853 H   0  0  0  0  0  0  0  0  0  0  0  0
   -6.2960   -3.1575    0.4314 H   0  0  0  0  0  0  0  0  0  0  0  0
   -5.6008   -2.8472   -1.2585 H   0  0  0  0  0  0  0  0  0  0  0  0
    1.7804   -1.9739   -0.7062 H   0  0  0  0  0  0  0  0  0  0  0  0
    1.5053   -2.2731    1.0173 H   0  0  0  0  0  0  0  0  0  0  0  0
    3.1478   -1.5388    2.6042 H   0  0  0  0  0  0  0  0  0  0  0  0
    3.1087    0.6953   -2.1142 H   0  0  0  0  0  0  0  0  0  0  0  0
    2.8551   -1.0883   -2.1941 H   0  0  0  0  0  0  0  0  0  0  0  0
    7.1118    1.5302    1.1815 H   0  0  0  0  0  0  0  0  0  0  0  0
    7.7775   -0.1168    1.3625 H   0  0  0  0  0  0  0  0  0  0  0  0
  1  2  1  0
  2  3  1  0
  3  4  2  0
  4  5  1  0
  5  6  2  0
  6  7  1  0
  7  8  2  0
  3  8  1  0
  8  9  1  0
  9 10  1  0
  7 11  1  0
 11 12  1  0
 12 13  1  0
 13 14  2  0
  6 14  1  0
 12 15  1  0
 15 16  1  0
 16 17  1  0
 15 17  1  0
  5 18  1  0
 18 19  1  0
 19 20  2  0
 20 21  1  0
 21 22  2  0
 22 23  1  0
 23 24  2  0
 19 24  1  0
 24 25  1  0
 22 26  1  0
  1 27  1  0
  1 28  1  0
  1 29  1  0
  4 30  1  0
 10 31  1  0
 10 32  1  0
 10 33  1  0
 12 34  1  0
 13 35  1  0
 14 36  1  0
 15 37  1  0
 16 38  1  0
 16 39  1  0
 17 40  1  0
 17 41  1  0
 18 42  1  0
 18 43  1  0
 20 44  1  0
 25 45  1  0
 25 46  1  0
 26 47  1  0
 26 48  1  0
M  END

