404771097
     RDKit          3D

 33 34  0  0  1  0  0  0  0  0999 V2000
    1.8875   -1.2435   -0.0348 C   0  0  0  0  0  0  0  0  0  0  0  0
    3.1232   -1.1423    0.5692 C   0  0  0  0  0  0  0  0  0  0  0  0
    3.7823    0.0731    0.5970 C   0  0  0  0  0  0  0  0  0  0  0  0
    3.1800    1.1625    0.0139 C   0  0  0  0  0  0  0  0  0  0  0  0
    1.9373    1.0734   -0.5969 C   0  0  0  0  0  0  0  0  0  0  0  0
    1.2868   -0.1470   -0.6189 C   0  0  0  0  0  0  0  0  0  0  0  0
   -0.0430   -0.3086   -1.2557 C   0  0  2  0  0  0  0  0  0  0  0  0
   -1.1150   -0.4524   -0.1974 C   0  0  2  0  0  0  0  0  0  0  0  0
   -2.4166   -0.6936   -0.8871 C   0  0  0  0  0  0  0  0  0  0  0  0
   -3.6192   -0.5359   -0.0065 C   0  0  0  0  0  0  0  0  0  0  0  0
   -3.4776    0.7932    0.7461 C   0  0  0  0  0  0  0  0  0  0  0  0
   -2.1860    0.6606    1.5532 C   0  0  0  0  0  0  0  0  0  0  0  0
   -1.0998    0.7383    0.6210 N   0  0  0  0  0  0  0  0  0  0  0  0
   -0.0657   -1.4536   -2.0339 O   0  0  0  0  0  0  0  0  0  0  0  0
    3.8288    2.3837    0.0348 O   0  0  0  0  0  0  0  0  0  0  0  0
    5.0327    0.2184    1.1974 O   0  0  0  0  0  0  0  0  0  0  0  0
    1.3584   -2.2031   -0.0612 H   0  0  0  0  0  0  0  0  0  0  0  0
    3.5748   -2.0172    1.0212 H   0  0  0  0  0  0  0  0  0  0  0  0
    1.4648    1.9351   -1.0562 H   0  0  0  0  0  0  0  0  0  0  0  0
   -0.2801    0.5704   -1.8708 H   0  0  0  0  0  0  0  0  0  0  0  0
   -0.8365   -1.3223    0.4350 H   0  0  0  0  0  0  0  0  0  0  0  0
   -2.4019   -1.7668   -1.2409 H   0  0  0  0  0  0  0  0  0  0  0  0
   -2.5258   -0.0316   -1.7699 H   0  0  0  0  0  0  0  0  0  0  0  0
   -3.6309   -1.3493    0.7769 H   0  0  0  0  0  0  0  0  0  0  0  0
   -4.5227   -0.5513   -0.6240 H   0  0  0  0  0  0  0  0  0  0  0  0
   -4.3513    0.9400    1.4020 H   0  0  0  0  0  0  0  0  0  0  0  0
   -3.3806    1.6064    0.0030 H   0  0  0  0  0  0  0  0  0  0  0  0
   -2.2084   -0.3655    1.9795 H   0  0  0  0  0  0  0  0  0  0  0  0
   -2.1366    1.3936    2.3710 H   0  0  0  0  0  0  0  0  0  0  0  0
   -1.1191    1.6034    0.0499 H   0  0  0  0  0  0  0  0  0  0  0  0
    0.7842   -1.4828   -2.5584 H   0  0  0  0  0  0  0  0  0  0  0  0
    4.7234    2.5198    0.4562 H   0  0  0  0  0  0  0  0  0  0  0  0
    5.4528   -0.6050    1.6202 H   0  0  0  0  0  0  0  0  0  0  0  0
  1  2  2  0
  2  3  1  0
  3  4  2  0
  4  5  1  0
  5  6  2  0
  1  6  1  0
  6  7  1  0
  8  7  1  0
  8  9  1  0
  9 10  1  0
 10 11  1  0
 11 12  1  0
 12 13  1  0
  8 13  1  0
  7 14  1  0
  4 15  1  0
  3 16  1  0
  1 17  1  0
  2 18  1  0
  5 19  1  0
  7 20  1  6
  8 21  1  1
  9 22  1  0
  9 23  1  0
 10 24  1  0
 10 25  1  0
 11 26  1  0
 11 27  1  0
 12 28  1  0
 12 29  1  0
 13 30  1  0
 14 31  1  0
 15 32  1  0
 16 33  1  0
M  END

