404771135
     RDKit          3D

 54 57  0  0  1  0  0  0  0  0999 V2000
   -5.4065   -2.4978    0.4952 C   0  0  0  0  0  0  0  0  0  0  0  0
   -4.7345   -1.1189    0.4384 C   0  0  0  0  0  0  0  0  0  0  0  0
   -3.3007   -1.2308    0.0778 C   0  0  0  0  0  0  0  0  0  0  0  0
   -2.8885   -2.3600   -0.0907 O   0  0  0  0  0  0  0  0  0  0  0  0
   -2.4989    0.0118   -0.0466 C   0  0  1  0  0  0  0  0  0  0  0  0
   -2.5084    0.6260    1.3638 C   0  0  0  0  0  0  0  0  0  0  0  0
   -1.2298   -0.0566    1.9071 C   0  0  0  0  0  0  0  0  0  0  0  0
   -0.3303    0.3495    0.8096 C   0  0  2  0  0  0  0  0  0  0  0  0
   -1.0871   -0.1498   -0.4337 C   0  0  2  0  0  0  0  0  0  0  0  0
   -0.5984    0.8474   -1.4835 C   0  0  0  0  0  0  0  0  0  0  0  0
    0.8834    0.8171   -1.6534 C   0  0  0  0  0  0  0  0  0  0  0  0
    1.6719    0.3841   -0.4863 C   0  0  0  0  0  0  0  0  0  0  0  0
    3.0085    0.4990   -0.5704 C   0  0  0  0  0  0  0  0  0  0  0  0
    3.6760    1.0439   -1.8043 C   0  0  0  0  0  0  0  0  0  0  0  0
    4.8811    1.8362   -1.3386 C   0  0  0  0  0  0  0  0  0  0  0  0
    5.7410    1.0773   -0.4345 C   0  0  0  0  0  0  0  0  0  0  0  0
    6.9799    1.0490   -0.5921 O   0  0  0  0  0  0  0  0  0  0  0  0
    5.1267    0.3535    0.6554 C   0  0  0  0  0  0  0  0  0  0  0  0
    3.8131    0.0857    0.5715 C   0  0  0  0  0  0  0  0  0  0  0  0
    3.1801   -0.6533    1.6903 C   0  0  0  0  0  0  0  0  0  0  0  0
    1.8749    0.1117    1.9749 C   0  0  0  0  0  0  0  0  0  0  0  0
    1.0275   -0.1837    0.7370 C   0  0  1  0  0  0  0  0  0  0  0  0
   -0.6623   -1.5353   -0.8049 C   0  0  0  0  0  0  0  0  0  0  0  0
   -3.3037    0.9193   -0.9527 C   0  0  0  0  0  0  0  0  0  0  0  0
   -5.9940   -2.6814   -0.4506 H   0  0  0  0  0  0  0  0  0  0  0  0
   -6.1514   -2.5582    1.3099 H   0  0  0  0  0  0  0  0  0  0  0  0
   -4.6460   -3.3051    0.5318 H   0  0  0  0  0  0  0  0  0  0  0  0
   -5.3048   -0.5359   -0.3364 H   0  0  0  0  0  0  0  0  0  0  0  0
   -4.9608   -0.6489    1.3881 H   0  0  0  0  0  0  0  0  0  0  0  0
   -3.3710    0.3744    1.9566 H   0  0  0  0  0  0  0  0  0  0  0  0
   -2.2716    1.7026    1.3295 H   0  0  0  0  0  0  0  0  0  0  0  0
   -1.0187    0.3906    2.8909 H   0  0  0  0  0  0  0  0  0  0  0  0
   -1.3934   -1.1547    1.9481 H   0  0  0  0  0  0  0  0  0  0  0  0
   -0.2812    1.4612    0.7983 H   0  0  0  0  0  0  0  0  0  0  0  0
   -0.8403    1.8523   -1.0189 H   0  0  0  0  0  0  0  0  0  0  0  0
   -1.0673    0.7030   -2.4564 H   0  0  0  0  0  0  0  0  0  0  0  0
    1.1934    0.2547   -2.5862 H   0  0  0  0  0  0  0  0  0  0  0  0
    1.1640    1.8852   -1.9181 H   0  0  0  0  0  0  0  0  0  0  0  0
    3.0563    1.7506   -2.3672 H   0  0  0  0  0  0  0  0  0  0  0  0
    4.0229    0.1990   -2.4540 H   0  0  0  0  0  0  0  0  0  0  0  0
    5.4217    2.2773   -2.2077 H   0  0  0  0  0  0  0  0  0  0  0  0
    4.4581    2.6982   -0.7443 H   0  0  0  0  0  0  0  0  0  0  0  0
    5.6428    0.0176    1.5201 H   0  0  0  0  0  0  0  0  0  0  0  0
    2.8734   -1.6485    1.2922 H   0  0  0  0  0  0  0  0  0  0  0  0
    3.8054   -0.7165    2.5777 H   0  0  0  0  0  0  0  0  0  0  0  0
    1.3529   -0.2760    2.8474 H   0  0  0  0  0  0  0  0  0  0  0  0
    2.1103    1.1934    2.0470 H   0  0  0  0  0  0  0  0  0  0  0  0
    1.1030   -1.2864    0.6141 H   0  0  0  0  0  0  0  0  0  0  0  0
   -1.2997   -1.8590   -1.6634 H   0  0  0  0  0  0  0  0  0  0  0  0
   -0.5808   -2.2511    0.0108 H   0  0  0  0  0  0  0  0  0  0  0  0
    0.3680   -1.5034   -1.2649 H   0  0  0  0  0  0  0  0  0  0  0  0
   -2.7293    1.5411   -1.6277 H   0  0  0  0  0  0  0  0  0  0  0  0
   -3.9905    0.3223   -1.6248 H   0  0  0  0  0  0  0  0  0  0  0  0
   -3.9865    1.5762   -0.3715 H   0  0  0  0  0  0  0  0  0  0  0  0
  1  2  1  0
  2  3  1  0
  3  4  2  0
  5  3  1  1
  5  6  1  0
  6  7  1  0
  8  7  1  0
  8  9  1  0
  5  9  1  0
  9 10  1  0
 10 11  1  0
 11 12  1  0
 12 13  2  0
 13 14  1  0
 14 15  1  0
 15 16  1  0
 16 17  2  0
 16 18  1  0
 18 19  2  0
 13 19  1  0
 19 20  1  0
 20 21  1  0
 22 21  1  0
  8 22  1  0
 12 22  1  0
  9 23  1  6
  5 24  1  0
  1 25  1  0
  1 26  1  0
  1 27  1  0
  2 28  1  0
  2 29  1  0
  6 30  1  0
  6 31  1  0
  7 32  1  0
  7 33  1  0
  8 34  1  6
 10 35  1  0
 10 36  1  0
 11 37  1  0
 11 38  1  0
 14 39  1  0
 14 40  1  0
 15 41  1  0
 15 42  1  0
 18 43  1  0
 20 44  1  0
 20 45  1  0
 21 46  1  0
 21 47  1  0
 22 48  1  6
 23 49  1  0
 23 50  1  0
 23 51  1  0
 24 52  1  0
 24 53  1  0
 24 54  1  0
M  END

