404772652
     RDKit          3D

 45 48  0  0  0  0  0  0  0  0999 V2000
    0.9743    0.4275   -3.4997 C   0  0  0  0  0  0  0  0  0  0  0  0
    0.6070    0.1883   -2.0928 C   0  0  0  0  0  0  0  0  0  0  0  0
   -0.6932    0.4684   -1.6385 C   0  0  0  0  0  0  0  0  0  0  0  0
   -1.0705    0.2696   -0.3824 N   0  0  0  0  0  0  0  0  0  0  0  0
   -0.1457   -0.2220    0.4733 C   0  0  0  0  0  0  0  0  0  0  0  0
   -0.5179   -0.4039    1.6557 O   0  0  0  0  0  0  0  0  0  0  0  0
    1.1503   -0.5281    0.1328 C   0  0  0  0  0  0  0  0  0  0  0  0
    2.0127   -1.1015    1.0887 N   0  0  0  0  0  0  0  0  0  0  0  0
    3.3832   -1.1864    1.1602 C   0  0  0  0  0  0  0  0  0  0  0  0
    4.2571   -0.5061    0.3732 C   0  0  0  0  0  0  0  0  0  0  0  0
    5.6490   -0.7039    0.4729 C   0  0  0  0  0  0  0  0  0  0  0  0
    6.5706   -0.0070   -0.3383 N   0  0  0  0  0  0  0  0  0  0  0  0
    6.0889   -1.5883    1.3752 N   0  0  0  0  0  0  0  0  0  0  0  0
    5.2541   -2.2757    2.1696 C   0  0  0  0  0  0  0  0  0  0  0  0
    3.9441   -2.0623    2.0455 N   0  0  0  0  0  0  0  0  0  0  0  0
    1.5127   -0.3177   -1.1608 C   0  0  0  0  0  0  0  0  0  0  0  0
   -2.4402    0.6401   -0.2164 C   0  0  0  0  0  0  0  0  0  0  0  0
   -2.6555    1.6587    0.8688 C   0  0  0  0  0  0  0  0  0  0  0  0
   -3.4344    1.1647    2.0336 C   0  0  0  0  0  0  0  0  0  0  0  0
   -4.6687    0.4001    1.6961 C   0  0  0  0  0  0  0  0  0  0  0  0
   -4.6523   -0.2369    0.3389 C   0  0  0  0  0  0  0  0  0  0  0  0
   -3.2068   -0.6450    0.0641 C   0  0  0  0  0  0  0  0  0  0  0  0
   -2.8818    1.0993   -1.4942 N   0  0  0  0  0  0  0  0  0  0  0  0
   -1.8182    1.0045   -2.4131 C   0  0  0  0  0  0  0  0  0  0  0  0
   -1.8182    1.3139   -3.6527 O   0  0  0  0  0  0  0  0  0  0  0  0
    1.2935    1.4949   -3.6494 H   0  0  0  0  0  0  0  0  0  0  0  0
    0.1552    0.1548   -4.1844 H   0  0  0  0  0  0  0  0  0  0  0  0
    1.8814   -0.2126   -3.7027 H   0  0  0  0  0  0  0  0  0  0  0  0
    1.4949   -1.5676    1.9393 H   0  0  0  0  0  0  0  0  0  0  0  0
    3.9768    0.2380   -0.3282 H   0  0  0  0  0  0  0  0  0  0  0  0
    6.7985   -0.3934   -1.2723 H   0  0  0  0  0  0  0  0  0  0  0  0
    7.0366    0.8779   -0.0498 H   0  0  0  0  0  0  0  0  0  0  0  0
    5.6708   -2.9758    2.8795 H   0  0  0  0  0  0  0  0  0  0  0  0
    2.4881   -0.5593   -1.5693 H   0  0  0  0  0  0  0  0  0  0  0  0
   -1.7030    2.0774    1.2311 H   0  0  0  0  0  0  0  0  0  0  0  0
   -3.2289    2.5084    0.4124 H   0  0  0  0  0  0  0  0  0  0  0  0
   -3.7657    2.0746    2.6167 H   0  0  0  0  0  0  0  0  0  0  0  0
   -2.8295    0.5795    2.7724 H   0  0  0  0  0  0  0  0  0  0  0  0
   -5.5852    1.0238    1.7853 H   0  0  0  0  0  0  0  0  0  0  0  0
   -4.8189   -0.4313    2.4457 H   0  0  0  0  0  0  0  0  0  0  0  0
   -5.0343    0.4319   -0.4516 H   0  0  0  0  0  0  0  0  0  0  0  0
   -5.3142   -1.1422    0.3640 H   0  0  0  0  0  0  0  0  0  0  0  0
   -2.8454   -1.1834    0.9386 H   0  0  0  0  0  0  0  0  0  0  0  0
   -3.2199   -1.3099   -0.8122 H   0  0  0  0  0  0  0  0  0  0  0  0
   -3.8515    1.4638   -1.7544 H   0  0  0  0  0  0  0  0  0  0  0  0
  1  2  1  0
  2  3  2  0
  3  4  1  0
  4  5  1  0
  5  6  2  0
  5  7  1  0
  7  8  1  0
  8  9  1  0
  9 10  2  0
 10 11  1  0
 11 12  1  0
 11 13  2  0
 13 14  1  0
 14 15  2  0
  9 15  1  0
  7 16  2  0
  2 16  1  0
  4 17  1  0
 17 18  1  0
 18 19  1  0
 19 20  1  0
 20 21  1  0
 21 22  1  0
 17 22  1  0
 17 23  1  0
 23 24  1  0
  3 24  1  0
 24 25  2  0
  1 26  1  0
  1 27  1  0
  1 28  1  0
  8 29  1  0
 10 30  1  0
 12 31  1  0
 12 32  1  0
 14 33  1  0
 16 34  1  0
 18 35  1  0
 18 36  1  0
 19 37  1  0
 19 38  1  0
 20 39  1  0
 20 40  1  0
 21 41  1  0
 21 42  1  0
 22 43  1  0
 22 44  1  0
 23 45  1  0
M  END

