404770911
     RDKit          3D

 42 43  0  0  1  0  0  0  0  0999 V2000
    1.5212   -1.6584    0.6831 C   0  0  0  0  0  0  0  0  0  0  0  0
    1.9980   -0.3850    0.0536 C   0  0  0  0  0  0  0  0  0  0  0  0
    0.8888    0.5664   -0.1472 C   0  0  0  0  0  0  0  0  0  0  0  0
   -0.2487    0.2062   -1.0083 C   0  0  0  0  0  0  0  0  0  0  0  0
   -1.0845   -0.9479   -0.6282 C   0  0  0  0  0  0  0  0  0  0  0  0
   -1.5998   -1.1053    0.6385 C   0  0  0  0  0  0  0  0  0  0  0  0
   -2.3961   -2.1707    1.0007 C   0  0  0  0  0  0  0  0  0  0  0  0
   -2.7125   -3.1358    0.0932 C   0  0  0  0  0  0  0  0  0  0  0  0
   -2.2144   -3.0164   -1.1941 C   0  0  0  0  0  0  0  0  0  0  0  0
   -1.4200   -1.9499   -1.5483 C   0  0  0  0  0  0  0  0  0  0  0  0
   -1.1006    1.4036   -1.1942 C   0  0  0  0  0  0  0  0  0  0  0  0
   -1.4675    2.1410   -0.1156 C   0  0  0  0  0  0  0  0  0  0  0  0
   -2.2732    3.2848   -0.2443 C   0  0  0  0  0  0  0  0  0  0  0  0
   -2.6816    3.6368   -1.5058 C   0  0  0  0  0  0  0  0  0  0  0  0
   -2.3115    2.8905   -2.6046 C   0  0  0  0  0  0  0  0  0  0  0  0
   -1.5169    1.7679   -2.4497 C   0  0  0  0  0  0  0  0  0  0  0  0
    3.0325    0.1869    0.8935 N   0  0  0  0  0  0  0  0  0  0  0  0
    2.6324    0.5551    2.2025 C   0  0  0  0  0  0  0  0  0  0  0  0
    4.2795   -0.4845    0.7910 C   0  0  0  0  0  0  0  0  0  0  0  0
    0.9191   -2.3057    0.0505 H   0  0  0  0  0  0  0  0  0  0  0  0
    2.4089   -2.3142    0.9798 H   0  0  0  0  0  0  0  0  0  0  0  0
    1.0107   -1.4959    1.6534 H   0  0  0  0  0  0  0  0  0  0  0  0
    2.5548   -0.6055   -0.9145 H   0  0  0  0  0  0  0  0  0  0  0  0
    1.3432    1.5053   -0.5963 H   0  0  0  0  0  0  0  0  0  0  0  0
    0.4942    0.9182    0.8487 H   0  0  0  0  0  0  0  0  0  0  0  0
    0.1655   -0.0705   -2.0612 H   0  0  0  0  0  0  0  0  0  0  0  0
   -1.3974   -0.3884    1.4223 H   0  0  0  0  0  0  0  0  0  0  0  0
   -2.7781   -2.2532    2.0072 H   0  0  0  0  0  0  0  0  0  0  0  0
   -3.3400   -3.9719    0.3851 H   0  0  0  0  0  0  0  0  0  0  0  0
   -2.4873   -3.8046   -1.8887 H   0  0  0  0  0  0  0  0  0  0  0  0
   -1.0633   -1.9136   -2.5674 H   0  0  0  0  0  0  0  0  0  0  0  0
   -1.1865    1.9253    0.9242 H   0  0  0  0  0  0  0  0  0  0  0  0
   -2.5552    3.8631    0.6434 H   0  0  0  0  0  0  0  0  0  0  0  0
   -3.3119    4.5303   -1.6132 H   0  0  0  0  0  0  0  0  0  0  0  0
   -2.6475    3.1895   -3.5915 H   0  0  0  0  0  0  0  0  0  0  0  0
   -1.2289    1.1815   -3.3377 H   0  0  0  0  0  0  0  0  0  0  0  0
    2.1076    1.5311    2.2556 H   0  0  0  0  0  0  0  0  0  0  0  0
    3.5841    0.7229    2.7905 H   0  0  0  0  0  0  0  0  0  0  0  0
    2.0665   -0.1787    2.7776 H   0  0  0  0  0  0  0  0  0  0  0  0
    4.2839   -1.5633    0.9338 H   0  0  0  0  0  0  0  0  0  0  0  0
    4.9942    0.0246    1.4959 H   0  0  0  0  0  0  0  0  0  0  0  0
    4.7384   -0.3117   -0.2275 H   0  0  0  0  0  0  0  0  0  0  0  0
  1  2  1  0
  2  3  1  0
  3  4  1  0
  4  5  1  0
  5  6  2  0
  6  7  1  0
  7  8  2  0
  8  9  1  0
  9 10  2  0
  5 10  1  0
  4 11  1  0
 11 12  2  0
 12 13  1  0
 13 14  2  0
 14 15  1  0
 15 16  2  0
 11 16  1  0
  2 17  1  0
 17 18  1  0
 17 19  1  0
  1 20  1  0
  1 21  1  0
  1 22  1  0
  2 23  1  0
  3 24  1  0
  3 25  1  0
  4 26  1  0
  6 27  1  0
  7 28  1  0
  8 29  1  0
  9 30  1  0
 10 31  1  0
 12 32  1  0
 13 33  1  0
 14 34  1  0
 15 35  1  0
 16 36  1  0
 18 37  1  0
 18 38  1  0
 18 39  1  0
 19 40  1  0
 19 41  1  0
 19 42  1  0
M  END

