404771501
     RDKit          3D

 84 88  0  0  1  0  0  0  0  0999 V2000
   -5.3171   -0.2910    1.0391 C   0  0  0  0  0  0  0  0  0  0  0  0
   -4.6269   -0.4232   -0.2975 C   0  0  1  0  0  0  0  0  0  0  0  0
   -5.2253   -1.6636   -0.9314 C   0  0  0  0  0  0  0  0  0  0  0  0
   -4.2670    1.9035   -1.2825 C   0  0  1  0  0  0  0  0  0  0  0  0
   -5.0958    0.6879   -1.2394 C   0  0  2  0  0  0  0  0  0  0  0  0
   -2.7921    1.6546   -1.2139 C   0  0  0  0  0  0  0  0  0  0  0  0
   -2.4373    0.7687   -0.0070 C   0  0  1  0  0  0  0  0  0  0  0  0
   -3.1573   -0.5318   -0.2892 C   0  0  1  0  0  0  0  0  0  0  0  0
   -2.5615   -1.6821    0.4575 C   0  0  1  0  0  0  0  0  0  0  0  0
   -1.1219   -1.8325   -0.0723 C   0  0  0  0  0  0  0  0  0  0  0  0
   -0.9748    0.6560    0.0486 C   0  0  2  0  0  0  0  0  0  0  0  0
   -0.3579   -0.6343    0.4420 C   0  0  2  0  0  0  0  0  0  0  0  0
    1.1295    1.5004    1.0638 C   0  0  0  0  0  0  0  0  0  0  0  0
   -0.3254    1.7279    0.9341 C   0  0  0  0  0  0  0  0  0  0  0  0
    1.7951    0.4474    0.6002 C   0  0  0  0  0  0  0  0  0  0  0  0
    1.0661   -0.6366   -0.1265 C   0  0  1  0  0  0  0  0  0  0  0  0
    1.6915   -1.9868    0.1489 C   0  0  0  0  0  0  0  0  0  0  0  0
    3.1762   -1.9890    0.0826 C   0  0  0  0  0  0  0  0  0  0  0  0
    3.2835    0.3685    0.8175 C   0  0  1  0  0  0  0  0  0  0  0  0
    3.7622   -1.0150    1.0521 C   0  0  2  0  0  0  0  0  0  0  0  0
    5.2712   -1.1089    0.9005 C   0  0  0  0  0  0  0  0  0  0  0  0
    5.8115   -0.5044   -0.3395 C   0  0  0  0  0  0  0  0  0  0  0  0
    5.4196    0.9556   -0.4083 C   0  0  2  0  0  0  0  0  0  0  0  0
    3.9302    1.1427   -0.2658 C   0  0  2  0  0  0  0  0  0  0  0  0
   -2.9583    1.5485    1.1627 C   0  0  0  0  0  0  0  0  0  0  0  0
   -4.4729    2.5085   -2.5546 O   0  0  0  0  0  0  0  0  0  0  0  0
   -6.4097    1.0617   -0.8835 O   0  0  0  0  0  0  0  0  0  0  0  0
   -5.1023   -2.8223   -0.2325 O   0  0  0  0  0  0  0  0  0  0  0  0
   -2.6141   -1.5601    1.8254 O   0  0  0  0  0  0  0  0  0  0  0  0
   -0.1861   -0.8308    1.9187 C   0  0  0  0  0  0  0  0  0  0  0  0
    1.1042   -0.3951   -1.6059 C   0  0  0  0  0  0  0  0  0  0  0  0
    5.8577    1.4650   -1.7636 C   0  0  0  0  0  0  0  0  0  0  0  0
    3.7249    2.6435   -0.0154 C   0  0  0  0  0  0  0  0  0  0  0  0
    3.5533   -1.4204    2.4851 C   0  0  0  0  0  0  0  0  0  0  0  0
    3.9852   -0.6091    3.5010 O   0  0  0  0  0  0  0  0  0  0  0  0
    2.9850   -2.5000    2.7233 O   0  0  0  0  0  0  0  0  0  0  0  0
   -4.6564   -0.2917    1.9033 H   0  0  0  0  0  0  0  0  0  0  0  0
   -6.0274   -1.1495    1.2497 H   0  0  0  0  0  0  0  0  0  0  0  0
   -6.0072    0.5835    1.0234 H   0  0  0  0  0  0  0  0  0  0  0  0
   -4.8448   -1.8005   -1.9764 H   0  0  0  0  0  0  0  0  0  0  0  0
   -6.3401   -1.5150   -1.0958 H   0  0  0  0  0  0  0  0  0  0  0  0
   -4.6134    2.7308   -0.5927 H   0  0  0  0  0  0  0  0  0  0  0  0
   -5.1759    0.2869   -2.2711 H   0  0  0  0  0  0  0  0  0  0  0  0
   -2.4422    1.2169   -2.1532 H   0  0  0  0  0  0  0  0  0  0  0  0
   -2.3076    2.6459   -0.9869 H   0  0  0  0  0  0  0  0  0  0  0  0
   -2.8780   -0.7526   -1.3715 H   0  0  0  0  0  0  0  0  0  0  0  0
   -3.0420   -2.6142    0.1717 H   0  0  0  0  0  0  0  0  0  0  0  0
   -0.6481   -2.7360    0.3484 H   0  0  0  0  0  0  0  0  0  0  0  0
   -1.1850   -1.8124   -1.1594 H   0  0  0  0  0  0  0  0  0  0  0  0
   -0.5648    0.9012   -0.9779 H   0  0  0  0  0  0  0  0  0  0  0  0
    1.6881    2.2714    1.5887 H   0  0  0  0  0  0  0  0  0  0  0  0
   -0.4777    2.7104    0.4341 H   0  0  0  0  0  0  0  0  0  0  0  0
   -0.7436    1.6920    1.9579 H   0  0  0  0  0  0  0  0  0  0  0  0
    1.3529   -2.3959    1.0998 H   0  0  0  0  0  0  0  0  0  0  0  0
    1.2481   -2.6687   -0.6380 H   0  0  0  0  0  0  0  0  0  0  0  0
    3.5148   -3.0212    0.3449 H   0  0  0  0  0  0  0  0  0  0  0  0
    3.5633   -1.7123   -0.9220 H   0  0  0  0  0  0  0  0  0  0  0  0
    3.4714    0.9394    1.7774 H   0  0  0  0  0  0  0  0  0  0  0  0
    5.7592   -0.7246    1.8093 H   0  0  0  0  0  0  0  0  0  0  0  0
    5.5010   -2.2125    0.8701 H   0  0  0  0  0  0  0  0  0  0  0  0
    5.5257   -1.0620   -1.2386 H   0  0  0  0  0  0  0  0  0  0  0  0
    6.9183   -0.5285   -0.2700 H   0  0  0  0  0  0  0  0  0  0  0  0
    5.9400    1.5226    0.3709 H   0  0  0  0  0  0  0  0  0  0  0  0
    3.4667    0.9482   -1.2601 H   0  0  0  0  0  0  0  0  0  0  0  0
   -2.3880    2.5290    1.1170 H   0  0  0  0  0  0  0  0  0  0  0  0
   -3.9997    1.8550    1.1143 H   0  0  0  0  0  0  0  0  0  0  0  0
   -2.7557    1.1423    2.1426 H   0  0  0  0  0  0  0  0  0  0  0  0
   -4.6768    1.8053   -3.2108 H   0  0  0  0  0  0  0  0  0  0  0  0
   -7.0539    0.4625   -1.3526 H   0  0  0  0  0  0  0  0  0  0  0  0
   -5.8185   -3.0108    0.4227 H   0  0  0  0  0  0  0  0  0  0  0  0
   -2.6755   -2.4616    2.2279 H   0  0  0  0  0  0  0  0  0  0  0  0
   -0.8599   -0.2447    2.5615 H   0  0  0  0  0  0  0  0  0  0  0  0
   -0.3403   -1.9111    2.2157 H   0  0  0  0  0  0  0  0  0  0  0  0
    0.8309   -0.5940    2.2938 H   0  0  0  0  0  0  0  0  0  0  0  0
    0.3121   -0.9132   -2.1746 H   0  0  0  0  0  0  0  0  0  0  0  0
    2.0617   -0.8610   -1.9881 H   0  0  0  0  0  0  0  0  0  0  0  0
    1.2030    0.6721   -1.8935 H   0  0  0  0  0  0  0  0  0  0  0  0
    6.8367    2.0099   -1.6737 H   0  0  0  0  0  0  0  0  0  0  0  0
    6.0117    0.6239   -2.4692 H   0  0  0  0  0  0  0  0  0  0  0  0
    5.1083    2.1298   -2.2368 H   0  0  0  0  0  0  0  0  0  0  0  0
    3.9310    2.9076    1.0422 H   0  0  0  0  0  0  0  0  0  0  0  0
    2.7783    3.0071   -0.4114 H   0  0  0  0  0  0  0  0  0  0  0  0
    4.5239    3.1931   -0.5974 H   0  0  0  0  0  0  0  0  0  0  0  0
    3.4321   -0.3964    4.3142 H   0  0  0  0  0  0  0  0  0  0  0  0
  2  1  1  1
  2  3  1  0
  2  5  1  0
  2  8  1  0
  3 28  1  0
  4  5  1  0
  4  6  1  0
  4 26  1  0
  5 27  1  0
  6  7  1  0
  7 11  1  0
  7 25  1  1
  7  8  1  0
  8  9  1  0
  9 10  1  0
  9 29  1  0
 10 12  1  0
 11 12  1  0
 11 14  1  0
 12 16  1  0
 12 30  1  1
 13 15  2  0
 13 14  1  0
 15 19  1  0
 15 16  1  0
 16 17  1  0
 16 31  1  6
 17 18  1  0
 18 20  1  0
 19 20  1  0
 19 24  1  0
 20 34  1  1
 20 21  1  0
 21 22  1  0
 22 23  1  0
 23 24  1  0
 23 32  1  0
 24 33  1  0
 34 35  1  0
 34 36  2  0
  1 37  1  0
  1 38  1  0
  1 39  1  0
  3 40  1  0
  3 41  1  0
  4 42  1  1
  5 43  1  6
  6 44  1  0
  6 45  1  0
  8 46  1  6
  9 47  1  1
 10 48  1  0
 10 49  1  0
 11 50  1  6
 13 51  1  0
 14 52  1  0
 14 53  1  0
 17 54  1  0
 17 55  1  0
 18 56  1  0
 18 57  1  0
 19 58  1  1
 21 59  1  0
 21 60  1  0
 22 61  1  0
 22 62  1  0
 23 63  1  1
 24 64  1  6
 25 65  1  0
 25 66  1  0
 25 67  1  0
 26 68  1  0
 27 69  1  0
 28 70  1  0
 29 71  1  0
 30 72  1  0
 30 73  1  0
 30 74  1  0
 31 75  1  0
 31 76  1  0
 31 77  1  0
 32 78  1  0
 32 79  1  0
 32 80  1  0
 33 81  1  0
 33 82  1  0
 33 83  1  0
 35 84  1  0
M  END

