404772527
     RDKit          3D

 51 55  0  0  1  0  0  0  0  0999 V2000
    7.7269    0.9815    0.1881 C   0  0  0  0  0  0  0  0  0  0  0  0
    6.5122    0.8722   -0.5887 N   0  0  0  0  0  0  0  0  0  0  0  0
    6.3940    1.2639   -1.8646 C   0  0  0  0  0  0  0  0  0  0  0  0
    7.3049    1.7717   -2.5522 O   0  0  0  0  0  0  0  0  0  0  0  0
    5.1687    1.0311   -2.2829 O   0  0  0  0  0  0  0  0  0  0  0  0
    4.4615    0.4957   -1.3280 C   0  0  0  0  0  0  0  0  0  0  0  0
    3.1673    0.0625   -1.2110 C   0  0  0  0  0  0  0  0  0  0  0  0
    2.6735   -0.4786   -0.0453 C   0  0  0  0  0  0  0  0  0  0  0  0
    3.5179   -0.5812    1.0276 C   0  0  0  0  0  0  0  0  0  0  0  0
    4.8431   -0.1572    0.9661 C   0  0  0  0  0  0  0  0  0  0  0  0
    5.3032    0.3843   -0.2313 C   0  0  0  0  0  0  0  0  0  0  0  0
    1.3256   -0.9115    0.0219 N   0  0  0  0  0  0  0  0  0  0  0  0
    0.9858   -2.2047   -0.0878 C   0  0  0  0  0  0  0  0  0  0  0  0
   -0.3354   -2.5731   -0.0159 C   0  0  0  0  0  0  0  0  0  0  0  0
   -0.7065   -3.9717   -0.1342 C   0  0  0  0  0  0  0  0  0  0  0  0
    0.2794   -4.9163   -0.3182 O   0  0  0  0  0  0  0  0  0  0  0  0
   -1.8997   -4.3349   -0.0726 O   0  0  0  0  0  0  0  0  0  0  0  0
   -1.3215   -1.6059    0.1705 C   0  0  0  0  0  0  0  0  0  0  0  0
   -2.5026   -1.9816    0.2297 O   0  0  0  0  0  0  0  0  0  0  0  0
   -0.9802   -0.3343    0.2777 N   0  0  0  0  0  0  0  0  0  0  0  0
   -1.9361    0.7239    0.4714 C   0  0  2  0  0  0  0  0  0  0  0  0
   -2.4510    0.7986    1.8856 C   0  0  0  0  0  0  0  0  0  0  0  0
   -3.6183    1.7768    1.6580 C   0  0  0  0  0  0  0  0  0  0  0  0
   -4.1701    1.2098    0.3801 C   0  0  0  0  0  0  0  0  0  0  0  0
   -5.4822    1.2895   -0.0514 C   0  0  0  0  0  0  0  0  0  0  0  0
   -5.7897    0.6944   -1.2571 C   0  0  0  0  0  0  0  0  0  0  0  0
   -4.8006    0.0517   -1.9805 C   0  0  0  0  0  0  0  0  0  0  0  0
   -3.5047   -0.0100   -1.5241 C   0  0  0  0  0  0  0  0  0  0  0  0
   -3.1622    0.5784   -0.3152 C   0  0  0  0  0  0  0  0  0  0  0  0
   -6.5392    1.9817    0.7313 C   0  0  0  0  0  0  0  0  0  0  0  0
   -6.6939    1.4072    1.9786 F   0  0  0  0  0  0  0  0  0  0  0  0
   -6.1333    3.2930    0.9274 F   0  0  0  0  0  0  0  0  0  0  0  0
   -7.6943    2.0079    0.0115 F   0  0  0  0  0  0  0  0  0  0  0  0
    0.3174   -0.0121    0.2029 C   0  0  0  0  0  0  0  0  0  0  0  0
    0.6772    1.1966    0.3018 O   0  0  0  0  0  0  0  0  0  0  0  0
    7.8605    2.0040    0.6166 H   0  0  0  0  0  0  0  0  0  0  0  0
    7.7113    0.2157    1.0007 H   0  0  0  0  0  0  0  0  0  0  0  0
    8.5793    0.8304   -0.5020 H   0  0  0  0  0  0  0  0  0  0  0  0
    2.5058    0.1494   -2.0710 H   0  0  0  0  0  0  0  0  0  0  0  0
    3.1655   -0.9987    1.9528 H   0  0  0  0  0  0  0  0  0  0  0  0
    5.5250   -0.2298    1.8018 H   0  0  0  0  0  0  0  0  0  0  0  0
    1.7830   -2.9258   -0.2320 H   0  0  0  0  0  0  0  0  0  0  0  0
    0.1017   -5.9048   -0.4100 H   0  0  0  0  0  0  0  0  0  0  0  0
   -1.4872    1.7051    0.2195 H   0  0  0  0  0  0  0  0  0  0  0  0
   -1.7227    1.2163    2.5910 H   0  0  0  0  0  0  0  0  0  0  0  0
   -2.8964   -0.1563    2.2145 H   0  0  0  0  0  0  0  0  0  0  0  0
   -3.1465    2.7628    1.4747 H   0  0  0  0  0  0  0  0  0  0  0  0
   -4.3378    1.7550    2.4728 H   0  0  0  0  0  0  0  0  0  0  0  0
   -6.8021    0.7087   -1.6750 H   0  0  0  0  0  0  0  0  0  0  0  0
   -5.0466   -0.4234   -2.9432 H   0  0  0  0  0  0  0  0  0  0  0  0
   -2.7296   -0.5078   -2.0803 H   0  0  0  0  0  0  0  0  0  0  0  0
  1  2  1  0
  2  3  1  0
  3  4  2  0
  3  5  1  0
  5  6  1  0
  6  7  2  0
  7  8  1  0
  8  9  2  0
  9 10  1  0
 10 11  2  0
  2 11  1  0
  6 11  1  0
  8 12  1  0
 12 13  1  0
 13 14  2  0
 14 15  1  0
 15 16  1  0
 15 17  2  0
 14 18  1  0
 18 19  2  0
 18 20  1  0
 21 20  1  0
 21 22  1  0
 22 23  1  0
 23 24  1  0
 24 25  2  0
 25 26  1  0
 26 27  2  0
 27 28  1  0
 28 29  2  0
 21 29  1  0
 24 29  1  0
 25 30  1  0
 30 31  1  0
 30 32  1  0
 30 33  1  0
 20 34  1  0
 12 34  1  0
 34 35  2  0
  1 36  1  0
  1 37  1  0
  1 38  1  0
  7 39  1  0
  9 40  1  0
 10 41  1  0
 13 42  1  0
 16 43  1  0
 21 44  1  6
 22 45  1  0
 22 46  1  0
 23 47  1  0
 23 48  1  0
 26 49  1  0
 27 50  1  0
 28 51  1  0
M  END

