404772788
     RDKit          3D

 59 61  0  0  0  0  0  0  0  0999 V2000
   -3.0543   -2.7981   -3.2453 C   0  0  0  0  0  0  0  0  0  0  0  0
   -2.1002   -2.0831   -2.2743 C   0  0  0  0  0  0  0  0  0  0  0  0
   -2.8359   -1.1529   -1.4042 C   0  0  0  0  0  0  0  0  0  0  0  0
   -4.1123   -1.2235   -1.5125 O   0  0  0  0  0  0  0  0  0  0  0  0
   -2.3097   -0.2225   -0.4941 N   0  0  0  0  0  0  0  0  0  0  0  0
   -3.3181    0.4783    0.2926 C   0  0  0  0  0  0  0  0  0  0  0  0
   -4.1532   -0.2181    1.1370 C   0  0  0  0  0  0  0  0  0  0  0  0
   -5.1414    0.4252    1.8784 C   0  0  0  0  0  0  0  0  0  0  0  0
   -5.2905    1.7863    1.7689 C   0  0  0  0  0  0  0  0  0  0  0  0
   -4.4407    2.4739    0.9140 C   0  0  0  0  0  0  0  0  0  0  0  0
   -3.4536    1.8428    0.1709 C   0  0  0  0  0  0  0  0  0  0  0  0
   -0.9569    0.1733   -0.3008 C   0  0  0  0  0  0  0  0  0  0  0  0
   -0.0008   -0.9869   -0.0659 C   0  0  0  0  0  0  0  0  0  0  0  0
    1.3885   -0.3962    0.2701 C   0  0  0  0  0  0  0  0  0  0  0  0
    1.6583    0.6328   -0.6173 N   0  0  0  0  0  0  0  0  0  0  0  0
    2.7343    1.4912   -0.5402 C   0  0  0  0  0  0  0  0  0  0  0  0
    4.1197    1.0606   -0.8273 C   0  0  0  0  0  0  0  0  0  0  0  0
    4.6876   -0.0156   -0.0087 C   0  0  0  0  0  0  0  0  0  0  0  0
    4.7179   -1.3453   -0.3704 C   0  0  0  0  0  0  0  0  0  0  0  0
    5.2682   -2.3084    0.4399 C   0  0  0  0  0  0  0  0  0  0  0  0
    5.8179   -1.9500    1.6697 C   0  0  0  0  0  0  0  0  0  0  0  0
    5.8012   -0.6364    2.0546 C   0  0  0  0  0  0  0  0  0  0  0  0
    5.2415    0.3039    1.2173 C   0  0  0  0  0  0  0  0  0  0  0  0
    0.9234    0.6232   -1.8562 C   0  0  0  0  0  0  0  0  0  0  0  0
   -0.5136    0.9933   -1.4698 C   0  0  0  0  0  0  0  0  0  0  0  0
   -0.8575    0.9634    0.9852 C   0  0  0  0  0  0  0  0  0  0  0  0
    0.0506    1.7876    1.2050 O   0  0  0  0  0  0  0  0  0  0  0  0
   -1.7989    0.7669    1.9547 O   0  0  0  0  0  0  0  0  0  0  0  0
   -1.8405    1.4213    3.2016 C   0  0  0  0  0  0  0  0  0  0  0  0
   -3.7953   -2.0905   -3.6506 H   0  0  0  0  0  0  0  0  0  0  0  0
   -2.4991   -3.2248   -4.0952 H   0  0  0  0  0  0  0  0  0  0  0  0
   -3.5277   -3.6125   -2.6836 H   0  0  0  0  0  0  0  0  0  0  0  0
   -1.5711   -2.8786   -1.6688 H   0  0  0  0  0  0  0  0  0  0  0  0
   -1.3614   -1.5572   -2.8796 H   0  0  0  0  0  0  0  0  0  0  0  0
   -4.0323   -1.2714    1.2171 H   0  0  0  0  0  0  0  0  0  0  0  0
   -5.7923   -0.1091    2.5338 H   0  0  0  0  0  0  0  0  0  0  0  0
   -6.0571    2.2807    2.3446 H   0  0  0  0  0  0  0  0  0  0  0  0
   -4.5337    3.5351    0.8090 H   0  0  0  0  0  0  0  0  0  0  0  0
   -2.8235    2.4413   -0.4781 H   0  0  0  0  0  0  0  0  0  0  0  0
    0.1294   -1.5356   -1.0330 H   0  0  0  0  0  0  0  0  0  0  0  0
   -0.3520   -1.6078    0.7551 H   0  0  0  0  0  0  0  0  0  0  0  0
    2.0424   -1.2988    0.2590 H   0  0  0  0  0  0  0  0  0  0  0  0
    1.4272   -0.0438    1.3269 H   0  0  0  0  0  0  0  0  0  0  0  0
    2.6666    2.0512    0.4404 H   0  0  0  0  0  0  0  0  0  0  0  0
    2.5366    2.3412   -1.2877 H   0  0  0  0  0  0  0  0  0  0  0  0
    4.2130    0.8145   -1.9236 H   0  0  0  0  0  0  0  0  0  0  0  0
    4.8457    1.9361   -0.7268 H   0  0  0  0  0  0  0  0  0  0  0  0
    4.2902   -1.6239   -1.3288 H   0  0  0  0  0  0  0  0  0  0  0  0
    5.2720   -3.3357    0.1218 H   0  0  0  0  0  0  0  0  0  0  0  0
    6.2497   -2.7164    2.3018 H   0  0  0  0  0  0  0  0  0  0  0  0
    6.2357   -0.3662    3.0222 H   0  0  0  0  0  0  0  0  0  0  0  0
    5.2390    1.3340    1.5409 H   0  0  0  0  0  0  0  0  0  0  0  0
    1.3027    1.4815   -2.4597 H   0  0  0  0  0  0  0  0  0  0  0  0
    0.9826   -0.3020   -2.4328 H   0  0  0  0  0  0  0  0  0  0  0  0
   -1.1375    0.7430   -2.3398 H   0  0  0  0  0  0  0  0  0  0  0  0
   -0.5542    2.0865   -1.2225 H   0  0  0  0  0  0  0  0  0  0  0  0
   -2.6878    0.9609    3.7816 H   0  0  0  0  0  0  0  0  0  0  0  0
   -2.0327    2.4961    3.1197 H   0  0  0  0  0  0  0  0  0  0  0  0
   -0.9062    1.1855    3.7376 H   0  0  0  0  0  0  0  0  0  0  0  0
  1  2  1  0
  2  3  1  0
  3  4  2  0
  3  5  1  0
  5  6  1  0
  6  7  2  0
  7  8  1  0
  8  9  2  0
  9 10  1  0
 10 11  2  0
  6 11  1  0
  5 12  1  0
 12 13  1  0
 13 14  1  0
 14 15  1  0
 15 16  1  0
 16 17  1  0
 17 18  1  0
 18 19  2  0
 19 20  1  0
 20 21  2  0
 21 22  1  0
 22 23  2  0
 18 23  1  0
 15 24  1  0
 24 25  1  0
 12 25  1  0
 12 26  1  0
 26 27  2  0
 26 28  1  0
 28 29  1  0
  1 30  1  0
  1 31  1  0
  1 32  1  0
  2 33  1  0
  2 34  1  0
  7 35  1  0
  8 36  1  0
  9 37  1  0
 10 38  1  0
 11 39  1  0
 13 40  1  0
 13 41  1  0
 14 42  1  0
 14 43  1  0
 16 44  1  0
 16 45  1  0
 17 46  1  0
 17 47  1  0
 19 48  1  0
 20 49  1  0
 21 50  1  0
 22 51  1  0
 23 52  1  0
 24 53  1  0
 24 54  1  0
 25 55  1  0
 25 56  1  0
 29 57  1  0
 29 58  1  0
 29 59  1  0
M  ISO  1  29  11
M  END

