404771633
     RDKit          3D

 33 33  0  0  0  0  0  0  0  0999 V2000
   -2.6422    0.1440   -0.3904 C   0  0  0  0  0  0  0  0  0  0  0  0
   -3.1042    1.4400   -0.2517 C   0  0  0  0  0  0  0  0  0  0  0  0
   -4.3969    1.6618    0.1362 C   0  0  0  0  0  0  0  0  0  0  0  0
   -5.2979    0.6545    0.4062 C   0  0  0  0  0  0  0  0  0  0  0  0
   -4.8211   -0.6424    0.2626 C   0  0  0  0  0  0  0  0  0  0  0  0
   -3.5128   -0.8836   -0.1302 C   0  0  0  0  0  0  0  0  0  0  0  0
   -1.3042   -0.0879   -0.8528 C   0  0  0  0  0  0  0  0  0  0  0  0
   -0.4271   -0.7766   -0.1744 C   0  0  0  0  0  0  0  0  0  0  0  0
    0.9342   -0.9520   -0.7757 C   0  0  0  0  0  0  0  0  0  0  0  0
    1.9929   -0.3521    0.1538 C   0  0  0  0  0  0  0  0  0  0  0  0
    3.3289   -0.5553   -0.4960 C   0  0  0  0  0  0  0  0  0  0  0  0
    4.4698   -0.0058    0.3200 C   0  0  0  0  0  0  0  0  0  0  0  0
    4.3467    1.4787    0.5618 C   0  0  0  0  0  0  0  0  0  0  0  0
   -0.6301   -1.3208    1.1402 C   0  0  0  0  0  0  0  0  0  0  0  0
   -1.6772   -1.1658    1.7828 O   0  0  0  0  0  0  0  0  0  0  0  0
   -2.4353    2.2638   -0.4520 H   0  0  0  0  0  0  0  0  0  0  0  0
   -4.7526    2.6975    0.2431 H   0  0  0  0  0  0  0  0  0  0  0  0
   -6.2916    0.9004    0.7046 H   0  0  0  0  0  0  0  0  0  0  0  0
   -5.4891   -1.4623    0.4629 H   0  0  0  0  0  0  0  0  0  0  0  0
   -3.1883   -1.9262   -0.2495 H   0  0  0  0  0  0  0  0  0  0  0  0
   -1.0157    0.3369   -1.8213 H   0  0  0  0  0  0  0  0  0  0  0  0
    0.9827   -0.4028   -1.7284 H   0  0  0  0  0  0  0  0  0  0  0  0
    1.1804   -2.0056   -0.9604 H   0  0  0  0  0  0  0  0  0  0  0  0
    1.9285   -0.8606    1.1334 H   0  0  0  0  0  0  0  0  0  0  0  0
    1.7181    0.7048    0.2799 H   0  0  0  0  0  0  0  0  0  0  0  0
    3.3430   -0.1671   -1.5128 H   0  0  0  0  0  0  0  0  0  0  0  0
    3.4940   -1.6672   -0.5458 H   0  0  0  0  0  0  0  0  0  0  0  0
    5.3984   -0.1636   -0.2671 H   0  0  0  0  0  0  0  0  0  0  0  0
    4.5933   -0.5482    1.2743 H   0  0  0  0  0  0  0  0  0  0  0  0
    4.3106    2.0056   -0.4162 H   0  0  0  0  0  0  0  0  0  0  0  0
    3.5205    1.7510    1.2303 H   0  0  0  0  0  0  0  0  0  0  0  0
    5.2891    1.8040    1.0510 H   0  0  0  0  0  0  0  0  0  0  0  0
    0.1554   -1.8972    1.6112 H   0  0  0  0  0  0  0  0  0  0  0  0
  7  8  2  0
  2  3  2  0
  8  9  1  0
  3  4  1  0
  9 10  1  0
  4  5  2  0
 10 11  1  0
  5  6  1  0
 11 12  1  0
  1  6  2  0
 12 13  1  0
  8 14  1  0
  1  2  1  0
 14 15  2  0
  1  7  1  0
  2 16  1  0
  3 17  1  0
  4 18  1  0
  5 19  1  0
  6 20  1  0
  7 21  1  0
  9 22  1  0
  9 23  1  0
 10 24  1  0
 10 25  1  0
 11 26  1  0
 11 27  1  0
 12 28  1  0
 12 29  1  0
 13 30  1  0
 13 31  1  0
 13 32  1  0
 14 33  1  0
M  END

