404770638
     RDKit          3D

 92 91  0  0  1  0  0  0  0  0999 V2000
   10.3401   -2.6909   -0.0159 C   0  0  0  0  0  0  0  0  0  0  0  0
    9.9363   -1.2378   -0.0880 C   0  0  0  0  0  0  0  0  0  0  0  0
    9.0838   -0.9477   -1.2852 C   0  0  0  0  0  0  0  0  0  0  0  0
    9.5302   -0.6516    1.2025 C   0  0  0  0  0  0  0  0  0  0  0  0
    8.4120   -1.2086    1.9538 C   0  0  0  0  0  0  0  0  0  0  0  0
    7.0417   -1.2896    1.4774 C   0  0  0  0  0  0  0  0  0  0  0  0
    6.2264   -0.1055    1.1708 C   0  0  0  0  0  0  0  0  0  0  0  0
    6.6642    0.8350    0.1095 C   0  0  0  0  0  0  0  0  0  0  0  0
    4.8506   -0.6592    0.7135 C   0  0  0  0  0  0  0  0  0  0  0  0
    3.9030    0.4702    0.3635 C   0  0  0  0  0  0  0  0  0  0  0  0
    2.6116   -0.1781   -0.0506 C   0  0  0  0  0  0  0  0  0  0  0  0
    1.5404    0.8631   -0.4572 C   0  0  0  0  0  0  0  0  0  0  0  0
    2.0232    1.6919   -1.5973 C   0  0  0  0  0  0  0  0  0  0  0  0
    1.0880    1.5574    0.7451 C   0  0  0  0  0  0  0  0  0  0  0  0
    0.1127    2.6252    0.7232 C   0  0  0  0  0  0  0  0  0  0  0  0
   -1.2748    2.6543    0.3480 C   0  0  0  0  0  0  0  0  0  0  0  0
   -1.9148    2.4260   -0.9243 C   0  0  0  0  0  0  0  0  0  0  0  0
   -1.8941    1.1214   -1.5991 C   0  0  0  0  0  0  0  0  0  0  0  0
   -2.6741    1.2077   -2.9210 C   0  0  0  0  0  0  0  0  0  0  0  0
   -2.2307   -0.0738   -0.7996 C   0  0  0  0  0  0  0  0  0  0  0  0
   -3.5653   -0.1487   -0.1448 C   0  0  0  0  0  0  0  0  0  0  0  0
   -4.7560   -0.1116   -1.0380 C   0  0  0  0  0  0  0  0  0  0  0  0
   -6.0821   -0.1925   -0.2263 C   0  0  0  0  0  0  0  0  0  0  0  0
   -6.0927    0.9611    0.7086 C   0  0  0  0  0  0  0  0  0  0  0  0
   -6.2485   -1.5326    0.3259 C   0  0  0  0  0  0  0  0  0  0  0  0
   -7.3517   -1.9570    1.1653 C   0  0  0  0  0  0  0  0  0  0  0  0
   -8.7658   -2.0516    0.8865 C   0  0  0  0  0  0  0  0  0  0  0  0
   -9.6640   -0.9382    0.5650 C   0  0  0  0  0  0  0  0  0  0  0  0
   -9.4802   -0.1271   -0.6408 C   0  0  0  0  0  0  0  0  0  0  0  0
  -11.0989   -1.5492    0.4627 C   0  0  0  0  0  0  0  0  0  0  0  0
    9.7235   -3.2861    0.6642 H   0  0  0  0  0  0  0  0  0  0  0  0
   10.2695   -3.1299   -1.0324 H   0  0  0  0  0  0  0  0  0  0  0  0
   11.3990   -2.8273    0.2996 H   0  0  0  0  0  0  0  0  0  0  0  0
   10.9303   -0.7158   -0.3368 H   0  0  0  0  0  0  0  0  0  0  0  0
    9.5515   -1.4090   -2.2086 H   0  0  0  0  0  0  0  0  0  0  0  0
    9.1144    0.1534   -1.5299 H   0  0  0  0  0  0  0  0  0  0  0  0
    8.0706   -1.3407   -1.2643 H   0  0  0  0  0  0  0  0  0  0  0  0
    9.5292    0.4349    1.1619 H   0  0  0  0  0  0  0  0  0  0  0  0
   10.4682   -0.8410    1.8866 H   0  0  0  0  0  0  0  0  0  0  0  0
    8.6563   -2.2267    2.4101 H   0  0  0  0  0  0  0  0  0  0  0  0
    8.3650   -0.5834    2.9269 H   0  0  0  0  0  0  0  0  0  0  0  0
    6.8916   -2.0517    0.6496 H   0  0  0  0  0  0  0  0  0  0  0  0
    6.4580   -1.8290    2.3264 H   0  0  0  0  0  0  0  0  0  0  0  0
    6.0157    0.5081    2.1188 H   0  0  0  0  0  0  0  0  0  0  0  0
    6.0896    1.8189    0.1681 H   0  0  0  0  0  0  0  0  0  0  0  0
    6.3715    0.4682   -0.9256 H   0  0  0  0  0  0  0  0  0  0  0  0
    7.7112    1.1619    0.1247 H   0  0  0  0  0  0  0  0  0  0  0  0
    4.4366   -1.3481    1.4499 H   0  0  0  0  0  0  0  0  0  0  0  0
    5.0620   -1.2105   -0.2235 H   0  0  0  0  0  0  0  0  0  0  0  0
    3.7453    1.0201    1.3105 H   0  0  0  0  0  0  0  0  0  0  0  0
    4.3386    1.0877   -0.4293 H   0  0  0  0  0  0  0  0  0  0  0  0
    2.1610   -0.7871    0.7464 H   0  0  0  0  0  0  0  0  0  0  0  0
    2.7208   -0.8307   -0.9345 H   0  0  0  0  0  0  0  0  0  0  0  0
    0.7050    0.1728   -0.7911 H   0  0  0  0  0  0  0  0  0  0  0  0
    3.0430    1.3879   -1.9380 H   0  0  0  0  0  0  0  0  0  0  0  0
    2.0162    2.7802   -1.3256 H   0  0  0  0  0  0  0  0  0  0  0  0
    1.3811    1.5697   -2.4861 H   0  0  0  0  0  0  0  0  0  0  0  0
    0.6440    0.7202    1.4239 H   0  0  0  0  0  0  0  0  0  0  0  0
    1.9916    1.8794    1.3818 H   0  0  0  0  0  0  0  0  0  0  0  0
    0.2294    3.1574    1.7855 H   0  0  0  0  0  0  0  0  0  0  0  0
    0.5968    3.5090    0.0846 H   0  0  0  0  0  0  0  0  0  0  0  0
   -1.8068    1.9525    1.1501 H   0  0  0  0  0  0  0  0  0  0  0  0
   -1.6746    3.6818    0.7926 H   0  0  0  0  0  0  0  0  0  0  0  0
   -1.4001    3.1514   -1.6766 H   0  0  0  0  0  0  0  0  0  0  0  0
   -2.9732    2.8843   -0.9603 H   0  0  0  0  0  0  0  0  0  0  0  0
   -0.8369    0.9690   -1.9816 H   0  0  0  0  0  0  0  0  0  0  0  0
   -1.9631    1.3185   -3.7972 H   0  0  0  0  0  0  0  0  0  0  0  0
   -3.3822    2.0473   -2.9256 H   0  0  0  0  0  0  0  0  0  0  0  0
   -3.1603    0.2403   -3.0654 H   0  0  0  0  0  0  0  0  0  0  0  0
   -1.4273   -0.3133   -0.0410 H   0  0  0  0  0  0  0  0  0  0  0  0
   -2.1773   -0.9610   -1.5052 H   0  0  0  0  0  0  0  0  0  0  0  0
   -3.6784    0.5924    0.6888 H   0  0  0  0  0  0  0  0  0  0  0  0
   -3.5505   -1.1386    0.4158 H   0  0  0  0  0  0  0  0  0  0  0  0
   -4.7445   -0.9236   -1.7666 H   0  0  0  0  0  0  0  0  0  0  0  0
   -4.8133    0.8950   -1.5247 H   0  0  0  0  0  0  0  0  0  0  0  0
   -6.8392    0.0417   -1.0372 H   0  0  0  0  0  0  0  0  0  0  0  0
   -5.4909    0.6751    1.6084 H   0  0  0  0  0  0  0  0  0  0  0  0
   -7.1063    1.3017    0.9873 H   0  0  0  0  0  0  0  0  0  0  0  0
   -5.5754    1.8397    0.2620 H   0  0  0  0  0  0  0  0  0  0  0  0
   -5.2642   -1.8072    0.8559 H   0  0  0  0  0  0  0  0  0  0  0  0
   -6.1890   -2.2965   -0.5533 H   0  0  0  0  0  0  0  0  0  0  0  0
   -7.2982   -1.3721    2.1913 H   0  0  0  0  0  0  0  0  0  0  0  0
   -7.0372   -3.0074    1.5785 H   0  0  0  0  0  0  0  0  0  0  0  0
   -8.9564   -2.8514    0.0427 H   0  0  0  0  0  0  0  0  0  0  0  0
   -9.2160   -2.6456    1.7905 H   0  0  0  0  0  0  0  0  0  0  0  0
   -9.7888   -0.2756    1.4961 H   0  0  0  0  0  0  0  0  0  0  0  0
   -8.9849   -0.6941   -1.4384 H   0  0  0  0  0  0  0  0  0  0  0  0
  -10.4974    0.1650   -1.0726 H   0  0  0  0  0  0  0  0  0  0  0  0
   -8.9287    0.8142   -0.4667 H   0  0  0  0  0  0  0  0  0  0  0  0
  -11.4620   -1.7907    1.4764 H   0  0  0  0  0  0  0  0  0  0  0  0
  -11.7548   -0.8574   -0.0671 H   0  0  0  0  0  0  0  0  0  0  0  0
  -10.9786   -2.4987   -0.0844 H   0  0  0  0  0  0  0  0  0  0  0  0
  1  2  1  0
  2  3  1  0
  2  4  1  0
  4  5  1  0
  5  6  1  0
  6  7  1  0
  7  8  1  0
  7  9  1  0
  9 10  1  0
 10 11  1  0
 11 12  1  0
 12 13  1  0
 12 14  1  0
 14 15  1  0
 15 16  1  0
 16 17  1  0
 17 18  1  0
 18 19  1  0
 18 20  1  0
 20 21  1  0
 21 22  1  0
 22 23  1  0
 23 24  1  0
 23 25  1  0
 25 26  1  0
 26 27  1  0
 27 28  1  0
 28 29  1  0
 28 30  1  0
  1 31  1  0
  1 32  1  0
  1 33  1  0
  2 34  1  0
  3 35  1  0
  3 36  1  0
  3 37  1  0
  4 38  1  0
  4 39  1  0
  5 40  1  0
  5 41  1  0
  6 42  1  0
  6 43  1  0
  7 44  1  0
  8 45  1  0
  8 46  1  0
  8 47  1  0
  9 48  1  0
  9 49  1  0
 10 50  1  0
 10 51  1  0
 11 52  1  0
 11 53  1  0
 12 54  1  0
 13 55  1  0
 13 56  1  0
 13 57  1  0
 14 58  1  0
 14 59  1  0
 15 60  1  0
 15 61  1  0
 16 62  1  0
 16 63  1  0
 17 64  1  0
 17 65  1  0
 18 66  1  0
 19 67  1  0
 19 68  1  0
 19 69  1  0
 20 70  1  0
 20 71  1  0
 21 72  1  0
 21 73  1  0
 22 74  1  0
 22 75  1  0
 23 76  1  0
 24 77  1  0
 24 78  1  0
 24 79  1  0
 25 80  1  0
 25 81  1  0
 26 82  1  0
 26 83  1  0
 27 84  1  0
 27 85  1  0
 28 86  1  0
 29 87  1  0
 29 88  1  0
 29 89  1  0
 30 90  1  0
 30 91  1  0
 30 92  1  0
M  END

