404772675
     RDKit          3D

 62 65  0  0  1  0  0  0  0  0999 V2000
   -7.4288    3.4089    0.3999 C   0  0  0  0  0  0  0  0  0  0  0  0
   -6.0793    2.9500    0.8736 C   0  0  0  0  0  0  0  0  0  0  0  0
   -5.9200    1.4547    0.7749 C   0  0  1  0  0  0  0  0  0  0  0  0
   -4.5876    1.1753    1.1910 O   0  0  0  0  0  0  0  0  0  0  0  0
   -3.8431    0.2701    0.4677 C   0  0  0  0  0  0  0  0  0  0  0  0
   -2.4633    0.2298    0.6678 C   0  0  0  0  0  0  0  0  0  0  0  0
   -1.7341   -0.6678   -0.0648 C   0  0  0  0  0  0  0  0  0  0  0  0
   -2.3649   -1.5262   -0.9816 C   0  0  0  0  0  0  0  0  0  0  0  0
   -3.7187   -1.5064   -1.1893 C   0  0  0  0  0  0  0  0  0  0  0  0
   -4.4529   -0.5691   -0.4289 C   0  0  0  0  0  0  0  0  0  0  0  0
   -0.3096   -0.6835   -0.0810 N   0  0  0  0  0  0  0  0  0  0  0  0
    0.4090    0.4742   -0.2671 C   0  0  0  0  0  0  0  0  0  0  0  0
   -0.1630    1.8129   -0.3031 C   0  0  0  0  0  0  0  0  0  0  0  0
    1.7494    0.0718   -0.3609 C   0  0  0  0  0  0  0  0  0  0  0  0
    2.8048    0.9911   -0.6510 C   0  0  0  0  0  0  0  0  0  0  0  0
    2.5235    1.8787   -1.5695 O   0  0  0  0  0  0  0  0  0  0  0  0
    4.1358    1.0949   -0.1021 C   0  0  0  0  0  0  0  0  0  0  0  0
    4.5512    0.5634    1.0818 C   0  0  0  0  0  0  0  0  0  0  0  0
    5.8727    0.7230    1.5258 C   0  0  0  0  0  0  0  0  0  0  0  0
    6.8197    1.4320    0.7803 C   0  0  0  0  0  0  0  0  0  0  0  0
    8.1128    1.5980    1.2019 O   0  0  0  0  0  0  0  0  0  0  0  0
    9.1385    2.2838    0.5417 C   0  0  0  0  0  0  0  0  0  0  0  0
    6.4031    1.9641   -0.4041 C   0  0  0  0  0  0  0  0  0  0  0  0
    5.1032    1.7936   -0.8190 C   0  0  0  0  0  0  0  0  0  0  0  0
    1.8107   -1.2905   -0.2228 C   0  0  0  0  0  0  0  0  0  0  0  0
    2.8391   -2.2088   -0.2420 C   0  0  0  0  0  0  0  0  0  0  0  0
    2.6023   -3.5574   -0.0935 C   0  0  0  0  0  0  0  0  0  0  0  0
    1.2891   -4.0103    0.0804 C   0  0  0  0  0  0  0  0  0  0  0  0
    1.0896   -5.3958    0.2290 O   0  0  0  0  0  0  0  0  0  0  0  0
    0.8697   -6.1823   -0.9322 C   0  0  0  0  0  0  0  0  0  0  0  0
    0.7113   -7.5180   -0.5299 F   0  0  0  0  0  0  0  0  0  0  0  0
    1.9072   -6.1395   -1.8152 F   0  0  0  0  0  0  0  0  0  0  0  0
   -0.3244   -5.8281   -1.5452 F   0  0  0  0  0  0  0  0  0  0  0  0
    0.2515   -3.1109    0.1012 C   0  0  0  0  0  0  0  0  0  0  0  0
    0.5025   -1.7350   -0.0500 C   0  0  0  0  0  0  0  0  0  0  0  0
   -6.9178    0.6768    1.5033 C   0  0  0  0  0  0  0  0  0  0  0  0
   -8.2785    0.7588    1.0540 O   0  0  0  0  0  0  0  0  0  0  0  0
   -6.6976   -0.0401    2.4646 O   0  0  0  0  0  0  0  0  0  0  0  0
   -7.5498    3.0428   -0.6607 H   0  0  0  0  0  0  0  0  0  0  0  0
   -8.2273    3.0018    1.0027 H   0  0  0  0  0  0  0  0  0  0  0  0
   -7.4291    4.5334    0.3788 H   0  0  0  0  0  0  0  0  0  0  0  0
   -5.8870    3.2488    1.9339 H   0  0  0  0  0  0  0  0  0  0  0  0
   -5.2725    3.4287    0.2502 H   0  0  0  0  0  0  0  0  0  0  0  0
   -6.0062    1.1859   -0.3137 H   0  0  0  0  0  0  0  0  0  0  0  0
   -1.9386    0.8458    1.3643 H   0  0  0  0  0  0  0  0  0  0  0  0
   -1.7685   -2.2487   -1.5605 H   0  0  0  0  0  0  0  0  0  0  0  0
   -4.1980   -2.1593   -1.8861 H   0  0  0  0  0  0  0  0  0  0  0  0
   -5.5166   -0.5969   -0.6195 H   0  0  0  0  0  0  0  0  0  0  0  0
   -1.1561    1.8796   -0.8370 H   0  0  0  0  0  0  0  0  0  0  0  0
    0.4958    2.5076   -0.8648 H   0  0  0  0  0  0  0  0  0  0  0  0
   -0.2131    2.2977    0.7156 H   0  0  0  0  0  0  0  0  0  0  0  0
    3.8488    0.0076    1.6954 H   0  0  0  0  0  0  0  0  0  0  0  0
    6.1949    0.3142    2.4488 H   0  0  0  0  0  0  0  0  0  0  0  0
   10.1099    1.8306    0.8740 H   0  0  0  0  0  0  0  0  0  0  0  0
    9.2250    3.3578    0.8415 H   0  0  0  0  0  0  0  0  0  0  0  0
    9.0422    2.2972   -0.5617 H   0  0  0  0  0  0  0  0  0  0  0  0
    7.1329    2.5218   -0.9995 H   0  0  0  0  0  0  0  0  0  0  0  0
    4.8295    2.2331   -1.7741 H   0  0  0  0  0  0  0  0  0  0  0  0
    3.8455   -1.8359   -0.3750 H   0  0  0  0  0  0  0  0  0  0  0  0
    3.3905   -4.2972   -0.1019 H   0  0  0  0  0  0  0  0  0  0  0  0
   -0.7493   -3.4749    0.2365 H   0  0  0  0  0  0  0  0  0  0  0  0
   -8.4158    0.4425    0.0967 H   0  0  0  0  0  0  0  0  0  0  0  0
  1  2  1  0
  2  3  1  0
  3  4  1  0
  4  5  1  0
  5  6  2  0
  6  7  1  0
  7  8  2  0
  8  9  1  0
  9 10  2  0
  5 10  1  0
  7 11  1  0
 11 12  1  0
 12 13  1  0
 12 14  2  0
 14 15  1  0
 15 16  2  0
 15 17  1  0
 17 18  2  0
 18 19  1  0
 19 20  2  0
 20 21  1  0
 21 22  1  0
 20 23  1  0
 23 24  2  0
 17 24  1  0
 14 25  1  0
 25 26  2  0
 26 27  1  0
 27 28  2  0
 28 29  1  0
 29 30  1  0
 30 31  1  0
 30 32  1  0
 30 33  1  0
 28 34  1  0
 34 35  2  0
 11 35  1  0
 25 35  1  0
  3 36  1  0
 36 37  1  0
 36 38  2  0
  1 39  1  0
  1 40  1  0
  1 41  1  0
  2 42  1  0
  2 43  1  0
  3 44  1  6
  6 45  1  0
  8 46  1  0
  9 47  1  0
 10 48  1  0
 13 49  1  0
 13 50  1  0
 13 51  1  0
 18 52  1  0
 19 53  1  0
 22 54  1  0
 22 55  1  0
 22 56  1  0
 23 57  1  0
 24 58  1  0
 26 59  1  0
 27 60  1  0
 34 61  1  0
 37 62  1  0
M  END

