404770919
     RDKit          3D

 54 56  0  0  1  0  0  0  0  0999 V2000
    4.4943   -0.9039   -0.8079 C   0  0  0  0  0  0  0  0  0  0  0  0
    4.4758    0.1593    0.2565 C   0  0  0  0  0  0  0  0  0  0  0  0
    3.2229    0.2346    0.9652 N   0  0  0  0  0  4  0  0  0  0  0  0
    2.9693   -0.9317    1.7735 C   0  0  0  0  0  0  0  0  0  0  0  0
    1.4611   -1.0785    1.7466 C   0  0  0  0  0  0  0  0  0  0  0  0
    1.2007   -0.7762    0.2636 C   0  0  0  0  0  0  0  0  0  0  0  0
    2.0965    0.4583    0.1129 C   0  0  0  0  0  0  0  0  0  0  0  0
   -0.1383   -0.5010    0.0046 O   0  0  0  0  0  0  0  0  0  0  0  0
   -0.8061   -1.3164   -0.9289 C   0  0  0  0  0  0  0  0  0  0  0  0
   -0.1703   -2.2492   -1.4826 O   0  0  0  0  0  0  0  0  0  0  0  0
   -2.2154   -1.1100   -1.2733 C   0  0  0  0  0  0  0  0  0  0  0  0
   -3.0908   -1.2631   -0.0842 C   0  0  0  0  0  0  0  0  0  0  0  0
   -2.6344   -1.5803    1.1741 C   0  0  0  0  0  0  0  0  0  0  0  0
   -3.4921   -1.7109    2.2569 C   0  0  0  0  0  0  0  0  0  0  0  0
   -4.8289   -1.5171    2.0602 C   0  0  0  0  0  0  0  0  0  0  0  0
   -5.3223   -1.1997    0.8208 C   0  0  0  0  0  0  0  0  0  0  0  0
   -4.4567   -1.0755   -0.2364 C   0  0  0  0  0  0  0  0  0  0  0  0
   -2.4196    0.2711   -1.8039 C   0  0  0  0  0  0  0  0  0  0  0  0
   -2.0830    1.3760   -1.0664 C   0  0  0  0  0  0  0  0  0  0  0  0
   -2.2520    2.6670   -1.5139 C   0  0  0  0  0  0  0  0  0  0  0  0
   -2.7924    2.8370   -2.7792 C   0  0  0  0  0  0  0  0  0  0  0  0
   -3.1344    1.7343   -3.5293 C   0  0  0  0  0  0  0  0  0  0  0  0
   -2.9590    0.4624   -3.0675 C   0  0  0  0  0  0  0  0  0  0  0  0
   -2.6117   -2.0314   -2.2412 O   0  0  0  0  0  0  0  0  0  0  0  0
    3.3572    1.3603    1.9053 C   0  0  0  0  0  0  0  0  0  0  0  0
    3.9328    2.5765    1.2134 C   0  0  0  0  0  0  0  0  0  0  0  0
    4.3661   -1.9212   -0.4393 H   0  0  0  0  0  0  0  0  0  0  0  0
    3.8139   -0.6234   -1.6236 H   0  0  0  0  0  0  0  0  0  0  0  0
    5.5301   -0.8662   -1.2568 H   0  0  0  0  0  0  0  0  0  0  0  0
    4.6834    1.1180   -0.2196 H   0  0  0  0  0  0  0  0  0  0  0  0
    5.2642   -0.0933    0.9876 H   0  0  0  0  0  0  0  0  0  0  0  0
    3.3797   -1.8661    1.3436 H   0  0  0  0  0  0  0  0  0  0  0  0
    3.3425   -0.7860    2.8151 H   0  0  0  0  0  0  0  0  0  0  0  0
    1.1116   -2.0897    1.9467 H   0  0  0  0  0  0  0  0  0  0  0  0
    0.9884   -0.3033    2.3891 H   0  0  0  0  0  0  0  0  0  0  0  0
    1.5794   -1.6220   -0.3118 H   0  0  0  0  0  0  0  0  0  0  0  0
    1.4801    1.3051    0.5307 H   0  0  0  0  0  0  0  0  0  0  0  0
    2.3162    0.5822   -0.9444 H   0  0  0  0  0  0  0  0  0  0  0  0
   -1.5823   -1.7353    1.3326 H   0  0  0  0  0  0  0  0  0  0  0  0
   -3.0710   -1.9626    3.2237 H   0  0  0  0  0  0  0  0  0  0  0  0
   -5.5406   -1.6087    2.8792 H   0  0  0  0  0  0  0  0  0  0  0  0
   -6.3826   -1.0457    0.6625 H   0  0  0  0  0  0  0  0  0  0  0  0
   -4.8138   -0.8273   -1.2216 H   0  0  0  0  0  0  0  0  0  0  0  0
   -1.6548    1.2738   -0.0645 H   0  0  0  0  0  0  0  0  0  0  0  0
   -1.9693    3.5028   -0.8906 H   0  0  0  0  0  0  0  0  0  0  0  0
   -2.9401    3.8279   -3.1652 H   0  0  0  0  0  0  0  0  0  0  0  0
   -3.5611    1.8889   -4.5299 H   0  0  0  0  0  0  0  0  0  0  0  0
   -3.2284   -0.4017   -3.6583 H   0  0  0  0  0  0  0  0  0  0  0  0
   -3.5837   -2.0003   -2.3603 H   0  0  0  0  0  0  0  0  0  0  0  0
    2.4069    1.5888    2.4085 H   0  0  0  0  0  0  0  0  0  0  0  0
    4.1437    1.0216    2.6310 H   0  0  0  0  0  0  0  0  0  0  0  0
    3.6313    3.4880    1.7949 H   0  0  0  0  0  0  0  0  0  0  0  0
    5.0309    2.5711    1.1691 H   0  0  0  0  0  0  0  0  0  0  0  0
    3.4560    2.6929    0.2037 H   0  0  0  0  0  0  0  0  0  0  0  0
  1  2  1  0
  2  3  1  0
  3  4  1  0
  4  5  1  0
  5  6  1  0
  6  7  1  0
  3  7  1  0
  6  8  1  0
  8  9  1  0
  9 10  2  0
  9 11  1  0
 11 12  1  0
 12 13  2  0
 13 14  1  0
 14 15  2  0
 15 16  1  0
 16 17  2  0
 12 17  1  0
 11 18  1  0
 18 19  2  0
 19 20  1  0
 20 21  2  0
 21 22  1  0
 22 23  2  0
 18 23  1  0
 11 24  1  0
  3 25  1  0
 25 26  1  0
  1 27  1  0
  1 28  1  0
  1 29  1  0
  2 30  1  0
  2 31  1  0
  4 32  1  0
  4 33  1  0
  5 34  1  0
  5 35  1  0
  6 36  1  0
  7 37  1  0
  7 38  1  0
 13 39  1  0
 14 40  1  0
 15 41  1  0
 16 42  1  0
 17 43  1  0
 19 44  1  0
 20 45  1  0
 21 46  1  0
 22 47  1  0
 23 48  1  0
 24 49  1  0
 25 50  1  0
 25 51  1  0
 26 52  1  0
 26 53  1  0
 26 54  1  0
M  CHG  1   3   1
M  END

