404770868
     RDKit          3D

 30 30  0  0  1  0  0  0  0  0999 V2000
    3.6383    0.6511   -0.2578 C   0  0  0  0  0  0  0  0  0  0  0  0
    2.2086    0.2688   -0.3907 C   0  0  0  0  0  0  0  0  0  0  0  0
    1.3854    1.0935   -1.0312 C   0  0  0  0  0  0  0  0  0  0  0  0
   -0.0436    0.6188   -1.1140 C   0  0  0  0  0  0  0  0  0  0  0  0
   -0.5336    0.2746    0.2922 C   0  0  2  0  0  0  0  0  0  0  0  0
    0.3366   -0.7698    0.8883 C   0  0  0  0  0  0  0  0  0  0  0  0
    1.6389   -0.9825    0.1496 C   0  0  2  0  0  0  0  0  0  0  0  0
    2.5927   -1.5458    1.0126 O   0  0  0  0  0  0  0  0  0  0  0  0
   -1.9717   -0.0682    0.1837 C   0  0  0  0  0  0  0  0  0  0  0  0
   -2.6232   -0.4365    1.4867 C   0  0  0  0  0  0  0  0  0  0  0  0
   -2.7094    1.1238   -0.3921 C   0  0  0  0  0  0  0  0  0  0  0  0
   -2.1419   -1.1415   -0.6906 O   0  0  0  0  0  0  0  0  0  0  0  0
    4.3092   -0.2140   -0.2793 H   0  0  0  0  0  0  0  0  0  0  0  0
    3.9040    1.3048   -1.1195 H   0  0  0  0  0  0  0  0  0  0  0  0
    3.8185    1.2485    0.6622 H   0  0  0  0  0  0  0  0  0  0  0  0
    1.6723    2.0310   -1.4693 H   0  0  0  0  0  0  0  0  0  0  0  0
   -0.6914    1.3273   -1.6258 H   0  0  0  0  0  0  0  0  0  0  0  0
   -0.0256   -0.3377   -1.6802 H   0  0  0  0  0  0  0  0  0  0  0  0
   -0.4583    1.2372    0.8781 H   0  0  0  0  0  0  0  0  0  0  0  0
    0.6182   -0.4508    1.9270 H   0  0  0  0  0  0  0  0  0  0  0  0
   -0.1383   -1.7605    0.9985 H   0  0  0  0  0  0  0  0  0  0  0  0
    1.4646   -1.7220   -0.6829 H   0  0  0  0  0  0  0  0  0  0  0  0
    2.6414   -2.5316    0.8713 H   0  0  0  0  0  0  0  0  0  0  0  0
   -2.5751    0.3654    2.2452 H   0  0  0  0  0  0  0  0  0  0  0  0
   -3.7141   -0.5798    1.2684 H   0  0  0  0  0  0  0  0  0  0  0  0
   -2.2738   -1.4042    1.8907 H   0  0  0  0  0  0  0  0  0  0  0  0
   -2.0764    2.0559   -0.3174 H   0  0  0  0  0  0  0  0  0  0  0  0
   -3.6212    1.3516    0.1974 H   0  0  0  0  0  0  0  0  0  0  0  0
   -2.9782    0.9351   -1.4528 H   0  0  0  0  0  0  0  0  0  0  0  0
   -1.6527   -1.9424   -0.3851 H   0  0  0  0  0  0  0  0  0  0  0  0
  1  2  1  0
  2  3  2  0
  3  4  1  0
  4  5  1  0
  5  6  1  0
  6  7  1  0
  2  7  1  0
  7  8  1  0
  5  9  1  0
  9 10  1  0
  9 11  1  0
  9 12  1  0
  1 13  1  0
  1 14  1  0
  1 15  1  0
  3 16  1  0
  4 17  1  0
  4 18  1  0
  5 19  1  1
  6 20  1  0
  6 21  1  0
  7 22  1  6
  8 23  1  0
 10 24  1  0
 10 25  1  0
 10 26  1  0
 11 27  1  0
 11 28  1  0
 11 29  1  0
 12 30  1  0
M  END

