404771463
     RDKit          3D

 45 47  0  0  0  0  0  0  0  0999 V2000
   -1.6335    2.9514    2.0783 C   0  0  0  0  0  0  0  0  0  0  0  0
   -2.6133    2.3539    1.3038 C   0  0  0  0  0  0  0  0  0  0  0  0
   -2.2726    1.4315    0.3381 C   0  0  0  0  0  0  0  0  0  0  0  0
   -0.3159    2.5909    1.8478 C   0  0  0  0  0  0  0  0  0  0  0  0
    0.0165    1.6680    0.8805 C   0  0  0  0  0  0  0  0  0  0  0  0
   -0.9665    1.0774    0.1132 C   0  0  0  0  0  0  0  0  0  0  0  0
   -0.6634    0.1615   -0.8501 N   0  0  0  0  0  0  0  0  0  0  0  0
    1.3196    1.2731    0.6107 C   0  0  0  0  0  0  0  0  0  0  0  0
    2.3378    1.8718    1.3911 N   0  0  0  0  0  0  0  0  0  0  0  0
   -3.2959    0.7806   -0.5001 C   0  0  0  0  0  0  0  0  0  0  0  0
    1.6150    0.3483   -0.3633 C   0  0  0  0  0  0  0  0  0  0  0  0
    0.6124   -0.1748   -1.0593 N   0  0  0  0  0  0  0  0  0  0  0  0
    3.0394   -0.0072   -0.5750 C   0  0  0  0  0  0  0  0  0  0  0  0
    3.3610   -0.9559   -1.5717 N   0  0  0  0  0  0  0  0  0  0  0  0
    3.8944    0.5443    0.1337 O   0  0  0  0  0  0  0  0  0  0  0  0
    4.6185   -1.4645   -1.9534 C   0  0  0  0  0  0  0  0  0  0  0  0
    5.3818   -2.2546   -0.9474 C   0  0  0  0  0  0  0  0  0  0  0  0
    5.7948   -1.6015    0.3101 C   0  0  0  0  0  0  0  0  0  0  0  0
   -3.8748   -0.3966   -0.0953 C   0  0  0  0  0  0  0  0  0  0  0  0
   -4.8449   -1.0421   -0.8592 C   0  0  0  0  0  0  0  0  0  0  0  0
   -5.2475   -0.5001   -2.0560 C   0  0  0  0  0  0  0  0  0  0  0  0
   -4.6707    0.6808   -2.4681 C   0  0  0  0  0  0  0  0  0  0  0  0
   -3.7071    1.3165   -1.7034 C   0  0  0  0  0  0  0  0  0  0  0  0
   -3.4529   -0.9273    1.1186 O   0  0  0  0  0  0  0  0  0  0  0  0
   -4.0209   -2.1311    1.5687 C   0  0  0  0  0  0  0  0  0  0  0  0
   -3.1711    2.4757   -2.1535 F   0  0  0  0  0  0  0  0  0  0  0  0
   -1.9352    3.6699    2.8260 H   0  0  0  0  0  0  0  0  0  0  0  0
   -3.6434    2.6134    1.4596 H   0  0  0  0  0  0  0  0  0  0  0  0
    0.4644    3.0290    2.4234 H   0  0  0  0  0  0  0  0  0  0  0  0
    2.7862    1.4598    2.2137 H   0  0  0  0  0  0  0  0  0  0  0  0
    2.6594    2.8277    1.0941 H   0  0  0  0  0  0  0  0  0  0  0  0
    2.5213   -1.3590   -2.1316 H   0  0  0  0  0  0  0  0  0  0  0  0
    4.4793   -2.1609   -2.8450 H   0  0  0  0  0  0  0  0  0  0  0  0
    5.2850   -0.6642   -2.3974 H   0  0  0  0  0  0  0  0  0  0  0  0
    4.7524   -3.1489   -0.6565 H   0  0  0  0  0  0  0  0  0  0  0  0
    6.2736   -2.7311   -1.4746 H   0  0  0  0  0  0  0  0  0  0  0  0
    6.2768   -0.6141    0.1851 H   0  0  0  0  0  0  0  0  0  0  0  0
    5.0547   -1.6306    1.1080 H   0  0  0  0  0  0  0  0  0  0  0  0
    6.6494   -2.2485    0.7327 H   0  0  0  0  0  0  0  0  0  0  0  0
   -5.2934   -1.9662   -0.5324 H   0  0  0  0  0  0  0  0  0  0  0  0
   -6.0041   -0.9650   -2.6937 H   0  0  0  0  0  0  0  0  0  0  0  0
   -4.9736    1.1307   -3.4143 H   0  0  0  0  0  0  0  0  0  0  0  0
   -3.4594   -2.4727    2.4559 H   0  0  0  0  0  0  0  0  0  0  0  0
   -4.0432   -2.9204    0.7863 H   0  0  0  0  0  0  0  0  0  0  0  0
   -5.0900   -1.9189    1.8082 H   0  0  0  0  0  0  0  0  0  0  0  0
  2  3  1  0
 11 13  1  0
  3  6  2  0
 13 14  1  0
  1  2  2  0
 13 15  2  0
  5  8  1  0
 14 16  1  0
  6  7  1  0
 16 17  1  0
  7 12  2  0
 17 18  1  0
  8 11  2  0
 10 19  2  0
  4  5  2  0
 19 20  1  0
  8  9  1  0
 20 21  2  0
  1  4  1  0
 21 22  1  0
  3 10  1  0
 22 23  2  0
 10 23  1  0
 11 12  1  0
 19 24  1  0
  5  6  1  0
 24 25  1  0
 23 26  1  0
  1 27  1  0
  2 28  1  0
  4 29  1  0
  9 30  1  0
  9 31  1  0
 14 32  1  0
 16 33  1  0
 16 34  1  0
 17 35  1  0
 17 36  1  0
 18 37  1  0
 18 38  1  0
 18 39  1  0
 20 40  1  0
 21 41  1  0
 22 42  1  0
 25 43  1  0
 25 44  1  0
 25 45  1  0
M  END

