404770270
     RDKit          3D

 48 50  0  0  1  0  0  0  0  0999 V2000
    4.0553   -2.5989   -0.5760 C   0  0  0  0  0  0  0  0  0  0  0  0
    5.2746   -3.1511   -0.2255 C   0  0  0  0  0  0  0  0  0  0  0  0
    5.8881   -2.7679    0.9385 C   0  0  0  0  0  0  0  0  0  0  0  0
    5.2723   -1.8214    1.7574 C   0  0  0  0  0  0  0  0  0  0  0  0
    4.0568   -1.2537    1.4332 C   0  0  0  0  0  0  0  0  0  0  0  0
    3.4640   -1.6604    0.2553 C   0  0  0  0  0  0  0  0  0  0  0  0
    2.1747   -1.1040   -0.1107 C   0  0  0  0  0  0  0  0  0  0  0  0
    1.2366   -1.8731   -0.8003 C   0  0  0  0  0  0  0  0  0  0  0  0
    0.0320   -1.3418   -1.1427 C   0  0  0  0  0  0  0  0  0  0  0  0
   -0.2334   -0.0193   -0.7870 C   0  0  0  0  0  0  0  0  0  0  0  0
    0.6865    0.7359   -0.1104 C   0  0  0  0  0  0  0  0  0  0  0  0
    1.9025    0.2011    0.2356 C   0  0  0  0  0  0  0  0  0  0  0  0
   -1.4511    0.4812   -1.1441 O   0  0  0  0  0  0  0  0  0  0  0  0
   -1.9146    1.7940   -0.8921 C   0  0  0  0  0  0  0  0  0  0  0  0
   -3.3183    1.8478   -1.4727 C   0  0  2  0  0  0  0  0  0  0  0  0
   -3.9880    3.1607   -1.3446 C   0  0  0  0  0  0  0  0  0  0  0  0
   -4.9869    3.0264   -0.2357 C   0  0  2  0  0  0  0  0  0  0  0  0
   -4.8219    1.6284    0.2236 C   0  0  0  0  0  0  0  0  0  0  0  0
   -5.1527    1.1325    1.3268 O   0  0  0  0  0  0  0  0  0  0  0  0
   -4.1909    0.8980   -0.8528 N   0  0  0  0  0  0  0  0  0  0  0  0
   -6.3629    3.2316   -0.8497 C   0  0  0  0  0  0  0  0  0  0  0  0
   -7.4300    3.1232    0.1721 C   0  0  0  0  0  0  0  0  0  0  0  0
   -8.6502    3.2470   -0.1850 O   0  0  0  0  0  0  0  0  0  0  0  0
   -7.1986    2.8923    1.5131 O   0  0  0  0  0  0  0  0  0  0  0  0
    7.1574   -3.3459    1.2992 C   0  0  0  0  0  0  0  0  0  0  0  0
    7.7305   -4.1825    0.5049 N   0  0  0  0  0  0  0  0  0  0  0  0
    7.7480   -2.9642    2.5419 N   0  0  0  0  0  0  0  0  0  0  0  0
    3.5434   -2.8702   -1.4746 H   0  0  0  0  0  0  0  0  0  0  0  0
    5.7024   -3.8725   -0.8915 H   0  0  0  0  0  0  0  0  0  0  0  0
    5.7679   -1.5297    2.6698 H   0  0  0  0  0  0  0  0  0  0  0  0
    3.5980   -0.5236    2.0810 H   0  0  0  0  0  0  0  0  0  0  0  0
    1.4693   -2.8914   -1.0625 H   0  0  0  0  0  0  0  0  0  0  0  0
   -0.6968   -1.9389   -1.6778 H   0  0  0  0  0  0  0  0  0  0  0  0
    0.4260    1.7652    0.1414 H   0  0  0  0  0  0  0  0  0  0  0  0
    2.6242    0.8162    0.7742 H   0  0  0  0  0  0  0  0  0  0  0  0
   -1.2943    2.4734   -1.4805 H   0  0  0  0  0  0  0  0  0  0  0  0
   -1.9052    2.0551    0.1782 H   0  0  0  0  0  0  0  0  0  0  0  0
   -3.1959    1.5851   -2.5526 H   0  0  0  0  0  0  0  0  0  0  0  0
   -3.2328    3.9489   -1.0710 H   0  0  0  0  0  0  0  0  0  0  0  0
   -4.4688    3.4806   -2.3065 H   0  0  0  0  0  0  0  0  0  0  0  0
   -4.8101    3.7368    0.5978 H   0  0  0  0  0  0  0  0  0  0  0  0
   -4.3834   -0.1108   -1.0697 H   0  0  0  0  0  0  0  0  0  0  0  0
   -6.3652    4.2085   -1.3569 H   0  0  0  0  0  0  0  0  0  0  0  0
   -6.5535    2.4545   -1.6411 H   0  0  0  0  0  0  0  0  0  0  0  0
   -7.7743    2.2598    2.0374 H   0  0  0  0  0  0  0  0  0  0  0  0
    8.6345   -4.6563    0.6630 H   0  0  0  0  0  0  0  0  0  0  0  0
    7.7482   -3.5907    3.3711 H   0  0  0  0  0  0  0  0  0  0  0  0
    8.1867   -2.0238    2.5983 H   0  0  0  0  0  0  0  0  0  0  0  0
  1  2  2  0
  2  3  1  0
  3  4  2  0
  4  5  1  0
  5  6  2  0
  1  6  1  0
  6  7  1  0
  7  8  2  0
  8  9  1  0
  9 10  2  0
 10 11  1  0
 11 12  2  0
  7 12  1  0
 10 13  1  0
 13 14  1  0
 15 14  1  0
 15 16  1  0
 16 17  1  0
 17 18  1  0
 18 19  2  0
 18 20  1  0
 15 20  1  0
 17 21  1  0
 21 22  1  0
 22 23  2  0
 22 24  1  0
  3 25  1  0
 25 26  2  3
 25 27  1  0
  1 28  1  0
  2 29  1  0
  4 30  1  0
  5 31  1  0
  8 32  1  0
  9 33  1  0
 11 34  1  0
 12 35  1  0
 14 36  1  0
 14 37  1  0
 15 38  1  6
 16 39  1  0
 16 40  1  0
 17 41  1  1
 20 42  1  0
 21 43  1  0
 21 44  1  0
 24 45  1  0
 26 46  1  0
 27 47  1  0
 27 48  1  0
M  END

