404771406
     RDKit          3D

 35 36  0  0  1  0  0  0  0  0999 V2000
    4.6895    1.3199   -0.1968 C   0  0  0  0  0  0  0  0  0  0  0  0
    3.3152    0.9596   -0.3452 C   0  0  0  0  0  0  0  0  0  0  0  0
    2.7235    0.1214    0.5753 C   0  0  0  0  0  0  0  0  0  0  0  0
    1.3989   -0.2266    0.4334 C   0  0  0  0  0  0  0  0  0  0  0  0
    0.6031    0.2299   -0.6110 C   0  0  0  0  0  0  0  0  0  0  0  0
    1.2148    1.0701   -1.5248 C   0  0  0  0  0  0  0  0  0  0  0  0
    2.5377    1.4317   -1.4034 C   0  0  0  0  0  0  0  0  0  0  0  0
    5.8151    1.5970   -0.0760 N   0  0  0  0  0  0  0  0  0  0  0  0
    3.5551   -0.3792    1.7009 C   0  0  0  0  0  0  0  0  0  0  0  0
    4.6456   -1.1070    1.2606 F   0  0  0  0  0  0  0  0  0  0  0  0
    3.9985    0.6865    2.4776 F   0  0  0  0  0  0  0  0  0  0  0  0
    2.8351   -1.2159    2.5323 F   0  0  0  0  0  0  0  0  0  0  0  0
   -0.7434   -0.1178   -0.7564 N   0  0  0  0  0  0  0  0  0  0  0  0
   -1.5586   -0.8732    0.1401 C   0  0  2  0  0  0  0  0  0  0  0  0
   -2.5524   -1.6197   -0.7624 C   0  0  0  0  0  0  0  0  0  0  0  0
   -2.5921   -0.8574   -2.0551 C   0  0  0  0  0  0  0  0  0  0  0  0
   -1.5823    0.2223   -1.8765 C   0  0  0  0  0  0  0  0  0  0  0  0
   -2.4125   -0.0200    1.0385 C   0  0  2  0  0  0  0  0  0  0  0  0
   -1.6592    0.8854    1.9539 C   0  0  0  0  0  0  0  0  0  0  0  0
   -3.1451   -0.9218    1.8464 O   0  0  0  0  0  0  0  0  0  0  0  0
   -0.8270    0.2445    2.8173 F   0  0  0  0  0  0  0  0  0  0  0  0
   -0.9508    1.8129    1.1746 F   0  0  0  0  0  0  0  0  0  0  0  0
   -2.5305    1.6485    2.7116 F   0  0  0  0  0  0  0  0  0  0  0  0
    0.9467   -0.8776    1.1464 H   0  0  0  0  0  0  0  0  0  0  0  0
    0.6786    1.4770   -2.3717 H   0  0  0  0  0  0  0  0  0  0  0  0
    3.0424    2.0839   -2.0982 H   0  0  0  0  0  0  0  0  0  0  0  0
   -1.0335   -1.6268    0.7429 H   0  0  0  0  0  0  0  0  0  0  0  0
   -2.2566   -2.6785   -0.8861 H   0  0  0  0  0  0  0  0  0  0  0  0
   -3.5764   -1.6214   -0.3380 H   0  0  0  0  0  0  0  0  0  0  0  0
   -3.5902   -0.4188   -2.2614 H   0  0  0  0  0  0  0  0  0  0  0  0
   -2.2620   -1.5147   -2.8855 H   0  0  0  0  0  0  0  0  0  0  0  0
   -2.0267    1.2353   -1.7823 H   0  0  0  0  0  0  0  0  0  0  0  0
   -0.9082    0.2642   -2.7818 H   0  0  0  0  0  0  0  0  0  0  0  0
   -3.1731    0.5472    0.4750 H   0  0  0  0  0  0  0  0  0  0  0  0
   -2.6193   -1.7608    1.9857 H   0  0  0  0  0  0  0  0  0  0  0  0
  1  2  1  0
  1  8  3  0
  2  3  2  0
  2  7  1  0
  3  4  1  0
  3  9  1  0
  4  5  2  0
  5  6  1  0
  5 13  1  0
  6  7  2  0
  9 10  1  0
  9 11  1  0
  9 12  1  0
 13 14  1  0
 13 17  1  0
 14 15  1  0
 14 18  1  0
 15 16  1  0
 16 17  1  0
 18 19  1  0
 18 20  1  0
 19 21  1  0
 19 22  1  0
 19 23  1  0
  4 24  1  0
  6 25  1  0
  7 26  1  0
 14 27  1  1
 15 28  1  0
 15 29  1  0
 16 30  1  0
 16 31  1  0
 17 32  1  0
 17 33  1  0
 18 34  1  6
 20 35  1  0
M  END

