404771486
     RDKit          3D

 85 87  0  0  1  0  0  0  0  0999 V2000
    3.3138    0.4657    0.5846 O   0  0  0  0  0  0  0  0  0  0  0  0
    4.5772    1.0021    0.6096 C   0  0  0  0  0  0  0  0  0  0  0  0
    4.9317    1.4083    1.7772 O   0  0  0  0  0  0  0  0  0  0  0  0
    5.4495    1.1285   -0.4812 N   0  0  0  0  0  0  0  0  0  0  0  0
    6.7565    1.7337   -0.3095 C   0  0  0  0  0  0  0  0  0  0  0  0
    7.8293    0.7477   -0.7758 C   0  0  0  0  0  0  0  0  0  0  0  0
    7.5643    0.4651   -2.1488 N   0  0  0  0  0  0  0  0  0  0  0  0
    6.2814   -0.0895   -2.4306 C   0  0  0  0  0  0  0  0  0  0  0  0
    5.1222    0.6684   -1.7938 C   0  0  0  0  0  0  0  0  0  0  0  0
    7.8686    1.6321   -2.9436 C   0  0  0  0  0  0  0  0  0  0  0  0
    2.4434    0.3324    1.6874 C   0  0  1  0  0  0  0  0  0  0  0  0
    1.2927    1.2136    1.6286 C   0  0  0  0  0  0  0  0  0  0  0  0
    0.1760    1.2606    0.9711 C   0  0  0  0  0  0  0  0  0  0  0  0
   -0.3785    0.3364   -0.0591 C   0  0  2  0  0  0  0  0  0  0  0  0
   -0.8716    1.0746   -1.2815 C   0  0  0  0  0  0  0  0  0  0  0  0
   -1.2379   -0.7282    0.4582 C   0  0  1  0  0  0  0  0  0  0  0  0
   -2.6627   -0.4543    0.7407 C   0  0  0  0  0  0  0  0  0  0  0  0
   -3.3135    0.6505    0.5823 C   0  0  0  0  0  0  0  0  0  0  0  0
   -4.7582    0.7342    0.9268 C   0  0  0  0  0  0  0  0  0  0  0  0
   -5.4095    1.8702    0.7452 C   0  0  0  0  0  0  0  0  0  0  0  0
   -6.8251    1.9705    1.0777 C   0  0  1  0  0  0  0  0  0  0  0  0
   -7.2847    3.4234    1.1944 C   0  0  0  0  0  0  0  0  0  0  0  0
   -7.7348    1.3256    0.1076 C   0  0  0  0  0  0  0  0  0  0  0  0
   -8.6098    0.3627    0.4998 C   0  0  0  0  0  0  0  0  0  0  0  0
   -9.4245   -0.1861   -0.4711 C   0  0  0  0  0  0  0  0  0  0  0  0
   -9.3536    0.2259   -1.7863 C   0  0  0  0  0  0  0  0  0  0  0  0
   -8.4314    1.2200   -2.1169 C   0  0  0  0  0  0  0  0  0  0  0  0
   -7.6314    1.7609   -1.1718 N   0  0  0  0  0  0  0  0  0  0  0  0
   -3.4351   -1.6229    1.2739 C   0  0  0  0  0  0  0  0  0  0  0  0
   -1.2680   -1.8339   -0.3938 O   0  0  0  0  0  0  0  0  0  0  0  0
   -0.4594   -2.7713   -0.8473 C   0  0  0  0  0  0  0  0  0  0  0  0
    0.6958   -2.6482   -1.7906 C   0  0  0  0  0  0  0  0  0  0  0  0
    1.9874   -3.1722   -1.1776 C   0  0  1  0  0  0  0  0  0  0  0  0
    2.6367   -2.1228   -0.2558 C   0  0  0  0  0  0  0  0  0  0  0  0
    2.1254   -2.1555    1.1053 C   0  0  0  0  0  0  0  0  0  0  0  0
    2.3381   -1.0801    2.0703 C   0  0  2  0  0  0  0  0  0  0  0  0
    1.5047   -1.2212    3.3358 C   0  0  0  0  0  0  0  0  0  0  0  0
    3.6626   -1.3959    2.5579 O   0  0  0  0  0  0  0  0  0  0  0  0
    1.8021   -4.3836   -0.5792 O   0  0  0  0  0  0  0  0  0  0  0  0
   -0.6207   -3.9935   -0.4733 O   0  0  0  0  0  0  0  0  0  0  0  0
    6.9983    1.9838    0.7386 H   0  0  0  0  0  0  0  0  0  0  0  0
    6.8676    2.6539   -0.9074 H   0  0  0  0  0  0  0  0  0  0  0  0
    7.8266   -0.1328   -0.1096 H   0  0  0  0  0  0  0  0  0  0  0  0
    8.8057    1.2385   -0.6732 H   0  0  0  0  0  0  0  0  0  0  0  0
    6.1651   -0.1313   -3.5357 H   0  0  0  0  0  0  0  0  0  0  0  0
    6.2423   -1.1178   -2.0083 H   0  0  0  0  0  0  0  0  0  0  0  0
    4.9178    1.5221   -2.4869 H   0  0  0  0  0  0  0  0  0  0  0  0
    4.2611   -0.0056   -1.8532 H   0  0  0  0  0  0  0  0  0  0  0  0
    8.7585    2.1434   -2.5241 H   0  0  0  0  0  0  0  0  0  0  0  0
    6.9703    2.2907   -2.9745 H   0  0  0  0  0  0  0  0  0  0  0  0
    8.1629    1.2793   -3.9495 H   0  0  0  0  0  0  0  0  0  0  0  0
    3.1417    0.7606    2.5347 H   0  0  0  0  0  0  0  0  0  0  0  0
    1.4022    2.0911    2.3456 H   0  0  0  0  0  0  0  0  0  0  0  0
   -0.5630    2.0962    1.1308 H   0  0  0  0  0  0  0  0  0  0  0  0
    0.5377   -0.1991   -0.4298 H   0  0  0  0  0  0  0  0  0  0  0  0
   -1.7753    0.6210   -1.7350 H   0  0  0  0  0  0  0  0  0  0  0  0
   -0.1260    1.0408   -2.1363 H   0  0  0  0  0  0  0  0  0  0  0  0
   -0.9654    2.1795   -1.1113 H   0  0  0  0  0  0  0  0  0  0  0  0
   -0.8281   -0.9709    1.4963 H   0  0  0  0  0  0  0  0  0  0  0  0
   -2.8104    1.5004    0.2115 H   0  0  0  0  0  0  0  0  0  0  0  0
   -5.1998   -0.1490    1.3415 H   0  0  0  0  0  0  0  0  0  0  0  0
   -4.8397    2.6971    0.3475 H   0  0  0  0  0  0  0  0  0  0  0  0
   -7.0062    1.5192    2.0693 H   0  0  0  0  0  0  0  0  0  0  0  0
   -8.4100    3.3565    1.2579 H   0  0  0  0  0  0  0  0  0  0  0  0
   -6.9832    4.0270    0.3248 H   0  0  0  0  0  0  0  0  0  0  0  0
   -6.9468    3.8283    2.1484 H   0  0  0  0  0  0  0  0  0  0  0  0
   -8.6438    0.0586    1.5285 H   0  0  0  0  0  0  0  0  0  0  0  0
  -10.1438   -0.9529   -0.2294 H   0  0  0  0  0  0  0  0  0  0  0  0
   -9.9688   -0.1739   -2.5773 H   0  0  0  0  0  0  0  0  0  0  0  0
   -8.3595    1.5585   -3.1371 H   0  0  0  0  0  0  0  0  0  0  0  0
   -4.3049   -1.8478    0.6018 H   0  0  0  0  0  0  0  0  0  0  0  0
   -2.7857   -2.5122    1.3038 H   0  0  0  0  0  0  0  0  0  0  0  0
   -3.7758   -1.4511    2.3060 H   0  0  0  0  0  0  0  0  0  0  0  0
    0.5264   -3.3393   -2.6808 H   0  0  0  0  0  0  0  0  0  0  0  0
    0.8005   -1.6697   -2.2505 H   0  0  0  0  0  0  0  0  0  0  0  0
    2.6804   -3.3493   -2.0526 H   0  0  0  0  0  0  0  0  0  0  0  0
    2.5901   -1.2015   -0.8197 H   0  0  0  0  0  0  0  0  0  0  0  0
    3.7308   -2.4110   -0.2328 H   0  0  0  0  0  0  0  0  0  0  0  0
    2.4767   -3.1187    1.6289 H   0  0  0  0  0  0  0  0  0  0  0  0
    1.0113   -2.3653    1.0561 H   0  0  0  0  0  0  0  0  0  0  0  0
    0.9734   -0.2615    3.4881 H   0  0  0  0  0  0  0  0  0  0  0  0
    0.7724   -2.0499    3.1372 H   0  0  0  0  0  0  0  0  0  0  0  0
    2.0551   -1.4645    4.2326 H   0  0  0  0  0  0  0  0  0  0  0  0
    3.5765   -2.3204    2.9515 H   0  0  0  0  0  0  0  0  0  0  0  0
    1.5357   -4.4050    0.3496 H   0  0  0  0  0  0  0  0  0  0  0  0
  1  2  1  0
  2  3  2  0
  2  4  1  0
  4  5  1  0
  5  6  1  0
  6  7  1  0
  7  8  1  0
  4  9  1  0
  8  9  1  0
  7 10  1  0
 11  1  1  0
 11 12  1  0
 12 13  2  0
 13 14  1  0
 14 15  1  0
 14 16  1  0
 16 17  1  0
 17 18  2  0
 18 19  1  0
 19 20  2  0
 20 21  1  0
 21 22  1  0
 21 23  1  0
 23 24  2  0
 24 25  1  0
 25 26  2  0
 26 27  1  0
 23 28  1  0
 27 28  2  0
 17 29  1  0
 16 30  1  0
 30 31  1  0
 31 32  1  0
 32 33  1  0
 33 34  1  0
 34 35  1  0
 11 36  1  0
 35 36  1  0
 36 37  1  0
 36 38  1  1
 33 39  1  0
 31 40  2  0
  5 41  1  0
  5 42  1  0
  6 43  1  0
  6 44  1  0
  8 45  1  0
  8 46  1  0
  9 47  1  0
  9 48  1  0
 10 49  1  0
 10 50  1  0
 10 51  1  0
 11 52  1  1
 12 53  1  0
 13 54  1  0
 14 55  1  6
 15 56  1  0
 15 57  1  0
 15 58  1  0
 16 59  1  1
 18 60  1  0
 19 61  1  0
 20 62  1  0
 21 63  1  1
 22 64  1  0
 22 65  1  0
 22 66  1  0
 24 67  1  0
 25 68  1  0
 26 69  1  0
 27 70  1  0
 29 71  1  0
 29 72  1  0
 29 73  1  0
 32 74  1  0
 32 75  1  0
 33 76  1  6
 34 77  1  0
 34 78  1  0
 35 79  1  0
 35 80  1  0
 37 81  1  0
 37 82  1  0
 37 83  1  0
 38 84  1  0
 39 85  1  0
M  END

