404771078
     RDKit          3D

 82 84  0  0  1  0  0  0  0  0999 V2000
   -0.4776    1.3679    0.6867 C   0  0  1  0  0  0  0  0  0  0  0  0
   -0.4525    0.1676   -0.1841 C   0  0  1  0  0  0  0  0  0  0  0  0
    0.8619   -0.4433   -0.4866 C   0  0  2  0  0  0  0  0  0  0  0  0
    2.0799    0.3210   -0.1140 C   0  0  1  0  0  0  0  0  0  0  0  0
    1.8821    1.0423    1.1900 C   0  0  2  0  0  0  0  0  0  0  0  0
    0.8143    2.0984    0.8682 C   0  0  0  0  0  0  0  0  0  0  0  0
   -1.5135    2.2795    0.1926 N   0  0  0  0  0  0  0  0  0  0  0  0
   -1.2343   -0.8090    0.4532 O   0  0  0  0  0  0  0  0  0  0  0  0
    0.9808   -0.7173   -1.8736 O   0  0  0  0  0  0  0  0  0  0  0  0
    3.1471   -0.5698   -0.0327 O   0  0  0  0  0  0  0  0  0  0  0  0
    3.0830    1.6352    1.6890 N   0  0  0  0  0  0  0  0  0  0  0  0
   -2.6484    2.6570    0.9363 C   0  0  0  0  0  0  0  0  0  0  0  0
   -3.6418    3.5874    0.3462 C   0  0  1  0  0  0  0  0  0  0  0  0
   -2.8181    2.2019    2.1054 O   0  0  0  0  0  0  0  0  0  0  0  0
   -4.6603    3.8106    1.2568 O   0  0  0  0  0  0  0  0  0  0  0  0
   -2.8954    4.8653   -0.0146 C   0  0  0  0  0  0  0  0  0  0  0  0
   -3.8409    5.7962   -0.5961 N   0  0  0  0  0  0  0  0  0  0  0  0
    4.1685   -0.1730   -0.9101 C   0  0  2  0  0  0  0  0  0  0  0  0
    4.4385   -1.3175   -1.8659 C   0  0  1  0  0  0  0  0  0  0  0  0
    5.9001   -1.6693   -1.9595 C   0  0  2  0  0  0  0  0  0  0  0  0
    6.5757   -1.7514   -0.6185 C   0  0  1  0  0  0  0  0  0  0  0  0
    5.6959   -1.0895    0.4242 C   0  0  2  0  0  0  0  0  0  0  0  0
    5.2794    0.1274   -0.1231 O   0  0  0  0  0  0  0  0  0  0  0  0
    6.4729   -0.8568    1.7100 C   0  0  0  0  0  0  0  0  0  0  0  0
    7.6358   -0.0450    1.4213 N   0  0  0  0  0  0  0  0  0  0  0  0
    6.8818   -3.0559   -0.2620 O   0  0  0  0  0  0  0  0  0  0  0  0
    6.5079   -0.7068   -2.7897 O   0  0  0  0  0  0  0  0  0  0  0  0
    3.6345   -2.4124   -1.6214 O   0  0  0  0  0  0  0  0  0  0  0  0
   -2.3541   -1.1897   -0.2232 C   0  0  2  0  0  0  0  0  0  0  0  0
   -3.5443   -0.9359    0.6778 C   0  0  1  0  0  0  0  0  0  0  0  0
   -4.6272   -1.9391    0.4684 C   0  0  2  0  0  0  0  0  0  0  0  0
   -4.7050   -2.2171   -1.0368 C   0  0  1  0  0  0  0  0  0  0  0  0
   -3.3850   -2.8033   -1.4965 C   0  0  0  0  0  0  0  0  0  0  0  0
   -2.3643   -2.5334   -0.5886 O   0  0  0  0  0  0  0  0  0  0  0  0
   -3.1288   -0.8775    2.0038 O   0  0  0  0  0  0  0  0  0  0  0  0
   -5.8669   -1.4195    0.9693 N   0  0  0  0  0  0  0  0  0  0  0  0
   -5.7855   -3.2442   -1.2373 C   0  0  0  0  0  0  0  0  0  0  0  0
   -5.0383   -1.0608   -1.7075 O   0  0  0  0  0  0  0  0  0  0  0  0
   -5.6969   -1.2180    2.4031 C   0  0  0  0  0  0  0  0  0  0  0  0
   -0.8190    1.0960    1.7291 H   0  0  0  0  0  0  0  0  0  0  0  0
   -0.9317    0.4494   -1.1688 H   0  0  0  0  0  0  0  0  0  0  0  0
    0.9578   -1.4559    0.0097 H   0  0  0  0  0  0  0  0  0  0  0  0
    2.3284    1.1204   -0.8702 H   0  0  0  0  0  0  0  0  0  0  0  0
    1.4615    0.3848    1.9662 H   0  0  0  0  0  0  0  0  0  0  0  0
    0.7324    2.7278    1.7763 H   0  0  0  0  0  0  0  0  0  0  0  0
    1.1083    2.7117    0.0097 H   0  0  0  0  0  0  0  0  0  0  0  0
   -1.3903    2.6633   -0.7655 H   0  0  0  0  0  0  0  0  0  0  0  0
    0.2958   -1.3775   -2.1466 H   0  0  0  0  0  0  0  0  0  0  0  0
    2.8380    2.2828    2.4700 H   0  0  0  0  0  0  0  0  0  0  0  0
    3.5339    2.2250    0.9552 H   0  0  0  0  0  0  0  0  0  0  0  0
   -4.0508    3.2006   -0.6137 H   0  0  0  0  0  0  0  0  0  0  0  0
   -4.4413    4.6786    1.7052 H   0  0  0  0  0  0  0  0  0  0  0  0
   -2.4274    5.2412    0.9089 H   0  0  0  0  0  0  0  0  0  0  0  0
   -2.1444    4.5667   -0.7827 H   0  0  0  0  0  0  0  0  0  0  0  0
   -3.2512    6.5120   -1.1154 H   0  0  0  0  0  0  0  0  0  0  0  0
   -4.3261    6.3243    0.1816 H   0  0  0  0  0  0  0  0  0  0  0  0
    3.8649    0.7443   -1.4301 H   0  0  0  0  0  0  0  0  0  0  0  0
    4.1514   -0.9444   -2.8923 H   0  0  0  0  0  0  0  0  0  0  0  0
    5.9603   -2.6395   -2.4973 H   0  0  0  0  0  0  0  0  0  0  0  0
    7.5071   -1.1179   -0.6774 H   0  0  0  0  0  0  0  0  0  0  0  0
    4.8257   -1.7576    0.5954 H   0  0  0  0  0  0  0  0  0  0  0  0
    5.7729   -0.3432    2.4096 H   0  0  0  0  0  0  0  0  0  0  0  0
    6.7511   -1.8009    2.1755 H   0  0  0  0  0  0  0  0  0  0  0  0
    7.8216    0.5836    2.2356 H   0  0  0  0  0  0  0  0  0  0  0  0
    7.5287    0.5080    0.5607 H   0  0  0  0  0  0  0  0  0  0  0  0
    7.5569   -3.0042    0.4570 H   0  0  0  0  0  0  0  0  0  0  0  0
    6.1921   -0.9052   -3.7092 H   0  0  0  0  0  0  0  0  0  0  0  0
    3.0429   -2.6482   -2.3730 H   0  0  0  0  0  0  0  0  0  0  0  0
   -2.4558   -0.6309   -1.1929 H   0  0  0  0  0  0  0  0  0  0  0  0
   -3.9315    0.0774    0.3948 H   0  0  0  0  0  0  0  0  0  0  0  0
   -4.3293   -2.8724    0.9925 H   0  0  0  0  0  0  0  0  0  0  0  0
   -3.5079   -3.8987   -1.6039 H   0  0  0  0  0  0  0  0  0  0  0  0
   -3.1812   -2.4011   -2.5106 H   0  0  0  0  0  0  0  0  0  0  0  0
   -2.5577   -1.6515    2.2478 H   0  0  0  0  0  0  0  0  0  0  0  0
   -6.0819   -0.4777    0.5738 H   0  0  0  0  0  0  0  0  0  0  0  0
   -5.6853   -3.7742   -2.2116 H   0  0  0  0  0  0  0  0  0  0  0  0
   -5.8147   -4.0166   -0.4454 H   0  0  0  0  0  0  0  0  0  0  0  0
   -6.7929   -2.7460   -1.2059 H   0  0  0  0  0  0  0  0  0  0  0  0
   -4.4830   -0.9533   -2.5361 H   0  0  0  0  0  0  0  0  0  0  0  0
   -6.7002   -1.3764    2.8562 H   0  0  0  0  0  0  0  0  0  0  0  0
   -5.0087   -1.9846    2.8367 H   0  0  0  0  0  0  0  0  0  0  0  0
   -5.2803   -0.2220    2.6403 H   0  0  0  0  0  0  0  0  0  0  0  0
  3  4  1  0
  5 11  1  0
 18 23  1  0
 19 20  1  0
 20 21  1  0
 21 22  1  0
 22 23  1  0
  4  5  1  0
 22 24  1  0
  7 12  1  0
 24 25  1  0
  5  6  1  0
 21 26  1  0
 12 13  1  0
 20 27  1  0
 19 28  1  0
 12 14  2  0
  8 29  1  0
 29 30  1  0
  1  7  1  0
 13 15  1  0
  1  2  1  0
 13 16  1  0
  2  8  1  0
 29 34  1  0
 30 31  1  0
 31 32  1  0
 32 33  1  0
 33 34  1  0
 16 17  1  0
 30 35  1  0
  1  6  1  0
 31 36  1  0
 10 18  1  0
 32 37  1  0
 18 19  1  0
 32 38  1  6
  3  9  1  0
 36 39  1  0
  2  3  1  0
  4 10  1  0
  1 40  1  1
  2 41  1  6
  3 42  1  1
  4 43  1  6
  5 44  1  1
  6 45  1  0
  6 46  1  0
  7 47  1  0
  9 48  1  0
 11 49  1  0
 11 50  1  0
 13 51  1  6
 15 52  1  0
 16 53  1  0
 16 54  1  0
 17 55  1  0
 17 56  1  0
 18 57  1  6
 19 58  1  6
 20 59  1  6
 21 60  1  6
 22 61  1  1
 24 62  1  0
 24 63  1  0
 25 64  1  0
 25 65  1  0
 26 66  1  0
 27 67  1  0
 28 68  1  0
 29 69  1  6
 30 70  1  6
 31 71  1  1
 33 72  1  0
 33 73  1  0
 35 74  1  0
 36 75  1  0
 37 76  1  0
 37 77  1  0
 37 78  1  0
 38 79  1  0
 39 80  1  0
 39 81  1  0
 39 82  1  0
M  END

