404772507
     RDKit          3D

 64 66  0  0  1  0  0  0  0  0999 V2000
    0.1362   -3.8988    1.7827 C   0  0  0  0  0  0  0  0  0  0  0  0
   -0.6918   -4.1718    0.5689 C   0  0  0  0  0  0  0  0  0  0  0  0
   -0.1819   -3.5398   -0.6786 C   0  0  0  0  0  0  0  0  0  0  0  0
   -0.1123   -2.0449   -0.6758 C   0  0  2  0  0  0  0  0  0  0  0  0
    0.6814   -1.4730    0.2965 O   0  0  0  0  0  0  0  0  0  0  0  0
    1.8834   -0.8114    0.1540 C   0  0  0  0  0  0  0  0  0  0  0  0
    2.4819   -0.2706    1.3114 C   0  0  0  0  0  0  0  0  0  0  0  0
    3.6887    0.4054    1.2402 C   0  0  0  0  0  0  0  0  0  0  0  0
    4.3306    0.9873    2.4487 C   0  0  0  0  0  0  0  0  0  0  0  0
    4.3354    0.5676    0.0402 C   0  0  0  0  0  0  0  0  0  0  0  0
    5.5641    1.2733   -0.0243 N   0  0  0  0  0  0  0  0  0  0  0  0
    5.7129    2.6146   -0.2399 C   0  0  0  0  0  0  0  0  0  0  0  0
    7.0439    2.9482   -0.2362 C   0  0  0  0  0  0  0  0  0  0  0  0
    7.7183    1.7700   -0.0114 C   0  0  0  0  0  0  0  0  0  0  0  0
    6.7915    0.8060    0.1072 N   0  0  0  0  0  0  0  0  0  0  0  0
    7.6235    4.3187   -0.4332 C   0  0  0  0  0  0  0  0  0  0  0  0
    7.2901    4.7562   -1.7039 F   0  0  0  0  0  0  0  0  0  0  0  0
    6.9158    5.1525    0.4456 F   0  0  0  0  0  0  0  0  0  0  0  0
    8.9494    4.3713   -0.1542 F   0  0  0  0  0  0  0  0  0  0  0  0
    3.7814    0.0552   -1.0979 C   0  0  0  0  0  0  0  0  0  0  0  0
    4.4718    0.2104   -2.4086 C   0  0  0  0  0  0  0  0  0  0  0  0
    2.5550   -0.6329   -1.0308 C   0  0  0  0  0  0  0  0  0  0  0  0
   -1.4485   -1.3840   -0.6565 C   0  0  0  0  0  0  0  0  0  0  0  0
   -2.0923   -1.1803    0.5352 C   0  0  0  0  0  0  0  0  0  0  0  0
   -3.3233   -0.5608    0.5280 C   0  0  0  0  0  0  0  0  0  0  0  0
   -3.9260   -0.1404   -0.6330 C   0  0  0  0  0  0  0  0  0  0  0  0
   -3.2842   -0.3416   -1.8371 C   0  0  0  0  0  0  0  0  0  0  0  0
   -2.0548   -0.9623   -1.8167 C   0  0  0  0  0  0  0  0  0  0  0  0
   -5.2252    0.5288   -0.6640 C   0  0  0  0  0  0  0  0  0  0  0  0
   -5.8444    0.6061   -1.7491 O   0  0  0  0  0  0  0  0  0  0  0  0
   -5.7604    1.0735    0.5124 N   0  0  0  0  0  0  0  0  0  0  0  0
   -7.0240    1.7295    0.5357 C   0  0  0  0  0  0  0  0  0  0  0  0
   -8.1042    0.7704    0.1135 C   0  0  0  0  0  0  0  0  0  0  0  0
   -9.4072    1.5070    0.1802 C   0  0  0  0  0  0  0  0  0  0  0  0
  -10.5288    0.8089   -0.2116 O   0  0  0  0  0  0  0  0  0  0  0  0
   -9.4504    2.6829    0.5695 O   0  0  0  0  0  0  0  0  0  0  0  0
    1.1789   -3.5729    1.4891 H   0  0  0  0  0  0  0  0  0  0  0  0
    0.1970   -4.8401    2.3922 H   0  0  0  0  0  0  0  0  0  0  0  0
   -0.2425   -3.1395    2.4671 H   0  0  0  0  0  0  0  0  0  0  0  0
   -1.7439   -3.9094    0.8036 H   0  0  0  0  0  0  0  0  0  0  0  0
   -0.6975   -5.2832    0.3941 H   0  0  0  0  0  0  0  0  0  0  0  0
   -0.7607   -3.8427   -1.5872 H   0  0  0  0  0  0  0  0  0  0  0  0
    0.8540   -3.9107   -0.8591 H   0  0  0  0  0  0  0  0  0  0  0  0
    0.3471   -1.7771   -1.6783 H   0  0  0  0  0  0  0  0  0  0  0  0
    1.9769   -0.3987    2.2402 H   0  0  0  0  0  0  0  0  0  0  0  0
    4.8391    0.1576    2.9729 H   0  0  0  0  0  0  0  0  0  0  0  0
    3.5534    1.3704    3.1641 H   0  0  0  0  0  0  0  0  0  0  0  0
    5.0540    1.7861    2.1800 H   0  0  0  0  0  0  0  0  0  0  0  0
    4.8624    3.2561   -0.3829 H   0  0  0  0  0  0  0  0  0  0  0  0
    8.8083    1.6416    0.0563 H   0  0  0  0  0  0  0  0  0  0  0  0
    3.9560   -0.4716   -3.1480 H   0  0  0  0  0  0  0  0  0  0  0  0
    5.5214   -0.1987   -2.3565 H   0  0  0  0  0  0  0  0  0  0  0  0
    4.5171    1.2343   -2.7704 H   0  0  0  0  0  0  0  0  0  0  0  0
    2.1409   -1.0274   -1.9463 H   0  0  0  0  0  0  0  0  0  0  0  0
   -1.6434   -1.4974    1.4943 H   0  0  0  0  0  0  0  0  0  0  0  0
   -3.8381   -0.4019    1.4927 H   0  0  0  0  0  0  0  0  0  0  0  0
   -3.7418   -0.0148   -2.7860 H   0  0  0  0  0  0  0  0  0  0  0  0
   -1.5639   -1.1100   -2.7933 H   0  0  0  0  0  0  0  0  0  0  0  0
   -5.2311    1.0143    1.4210 H   0  0  0  0  0  0  0  0  0  0  0  0
   -7.2733    2.1626    1.5356 H   0  0  0  0  0  0  0  0  0  0  0  0
   -7.0667    2.5759   -0.2105 H   0  0  0  0  0  0  0  0  0  0  0  0
   -7.9775    0.4554   -0.9284 H   0  0  0  0  0  0  0  0  0  0  0  0
   -8.1141   -0.0535    0.8447 H   0  0  0  0  0  0  0  0  0  0  0  0
  -11.4079    1.2642   -0.4098 H   0  0  0  0  0  0  0  0  0  0  0  0
  1  2  1  0
  2  3  1  0
  3  4  1  0
  4  5  1  0
  5  6  1  0
  6  7  2  0
  7  8  1  0
  8  9  1  0
  8 10  2  0
 10 11  1  0
 11 12  1  0
 12 13  2  0
 13 14  1  0
 14 15  2  0
 11 15  1  0
 13 16  1  0
 16 17  1  0
 16 18  1  0
 16 19  1  0
 10 20  1  0
 20 21  1  0
 20 22  2  0
  6 22  1  0
  4 23  1  0
 23 24  2  0
 24 25  1  0
 25 26  2  0
 26 27  1  0
 27 28  2  0
 23 28  1  0
 26 29  1  0
 29 30  2  0
 29 31  1  0
 31 32  1  0
 32 33  1  0
 33 34  1  0
 34 35  1  0
 34 36  2  0
  1 37  1  0
  1 38  1  0
  1 39  1  0
  2 40  1  0
  2 41  1  0
  3 42  1  0
  3 43  1  0
  4 44  1  6
  7 45  1  0
  9 46  1  0
  9 47  1  0
  9 48  1  0
 12 49  1  0
 14 50  1  0
 21 51  1  0
 21 52  1  0
 21 53  1  0
 22 54  1  0
 24 55  1  0
 25 56  1  0
 27 57  1  0
 28 58  1  0
 31 59  1  0
 32 60  1  0
 32 61  1  0
 33 62  1  0
 33 63  1  0
 35 64  1  0
M  END

