404770184
     RDKit          3D

 26 27  0  0  0  0  0  0  0  0999 V2000
   -3.8805    0.7049   -0.1401 C   0  0  0  0  0  0  0  0  0  0  0  0
   -2.9000   -1.5284    0.1294 C   0  0  0  0  0  0  0  0  0  0  0  0
    1.9721   -0.5687   -0.5351 C   0  0  0  0  0  0  0  0  0  0  0  0
    1.3092    1.1456    0.9369 C   0  0  0  0  0  0  0  0  0  0  0  0
    3.2546   -0.0594   -0.4929 C   0  0  0  0  0  0  0  0  0  0  0  0
    2.5882    1.6613    0.9848 C   0  0  0  0  0  0  0  0  0  0  0  0
   -1.8197   -2.3709    0.2705 C   0  0  0  0  0  0  0  0  0  0  0  0
   -1.4445    0.3388    0.0303 C   0  0  0  0  0  0  0  0  0  0  0  0
   -2.7037   -0.1828    0.0107 C   0  0  0  0  0  0  0  0  0  0  0  0
    0.9672    0.0398    0.1929 C   0  0  0  0  0  0  0  0  0  0  0  0
    3.5869    1.0507    0.2569 C   0  0  0  0  0  0  0  0  0  0  0  0
   -0.5609   -1.7970    0.2850 C   0  0  0  0  0  0  0  0  0  0  0  0
   -0.3736   -0.4680    0.1674 N   0  0  0  0  0  0  0  0  0  0  0  0
    4.9005    1.4886    0.2369 O   0  0  0  0  0  0  0  0  0  0  0  0
    0.4113   -2.5804    0.4144 O   0  0  0  0  0  0  0  0  0  0  0  0
   -3.9975    0.9285   -1.2147 H   0  0  0  0  0  0  0  0  0  0  0  0
   -4.7989    0.1835    0.2004 H   0  0  0  0  0  0  0  0  0  0  0  0
   -3.6719    1.6226    0.4645 H   0  0  0  0  0  0  0  0  0  0  0  0
   -3.9184   -1.9241    0.1110 H   0  0  0  0  0  0  0  0  0  0  0  0
    1.7422   -1.4565   -1.1444 H   0  0  0  0  0  0  0  0  0  0  0  0
    0.5441    1.6562    1.5269 H   0  0  0  0  0  0  0  0  0  0  0  0
    4.0144   -0.5841   -1.0922 H   0  0  0  0  0  0  0  0  0  0  0  0
    2.8551    2.5380    1.5758 H   0  0  0  0  0  0  0  0  0  0  0  0
   -1.9917   -3.4341    0.3633 H   0  0  0  0  0  0  0  0  0  0  0  0
   -1.2861    1.4228   -0.0653 H   0  0  0  0  0  0  0  0  0  0  0  0
    5.2015    2.1732   -0.4622 H   0  0  0  0  0  0  0  0  0  0  0  0
  3  5  2  0
  4  6  1  0
  2  7  2  0
  1  9  1  0
  2  9  1  0
  8  9  2  0
  3 10  1  0
  4 10  2  0
  5 11  1  0
  6 11  2  0
  7 12  1  0
  8 13  1  0
 10 13  1  0
 12 13  1  0
 11 14  1  0
 12 15  2  0
  1 16  1  0
  1 17  1  0
  1 18  1  0
  2 19  1  0
  3 20  1  0
  4 21  1  0
  5 22  1  0
  6 23  1  0
  7 24  1  0
  8 25  1  0
 14 26  1  0
M  END

