404771121
     RDKit          3D

 75 75  0  0  0  0  0  0  0  0999 V2000
    6.6618   -2.2922   -2.1416 C   0  0  0  0  0  0  0  0  0  0  0  0
    6.6258   -1.1255   -1.1611 C   0  0  0  0  0  0  0  0  0  0  0  0
    6.1331   -1.5678    0.0865 N   0  0  0  0  0  0  0  0  0  0  0  0
    6.9027   -2.4459    0.8578 C   0  0  0  0  0  0  0  0  0  0  0  0
    6.2082   -2.8401    2.1179 C   0  0  0  0  0  0  0  0  0  0  0  0
    4.9662   -0.9805    0.5870 C   0  0  0  0  0  0  0  0  0  0  0  0
    3.7876   -1.4167   -0.2729 C   0  0  0  0  0  0  0  0  0  0  0  0
    2.5918   -0.8595    0.1710 O   0  0  0  0  0  0  0  0  0  0  0  0
    1.3807   -1.1267   -0.4411 C   0  0  0  0  0  0  0  0  0  0  0  0
    1.3223   -1.9747   -1.5231 C   0  0  0  0  0  0  0  0  0  0  0  0
    0.1251   -2.2565   -2.1481 C   0  0  0  0  0  0  0  0  0  0  0  0
   -1.0294   -1.6473   -1.6408 C   0  0  0  0  0  0  0  0  0  0  0  0
   -1.0219   -0.7979   -0.5683 C   0  0  0  0  0  0  0  0  0  0  0  0
    0.2146   -0.5384    0.0363 C   0  0  0  0  0  0  0  0  0  0  0  0
    0.3634    0.3017    1.1277 O   0  0  0  0  0  0  0  0  0  0  0  0
    0.7165    1.6654    0.9539 C   0  0  0  0  0  0  0  0  0  0  0  0
   -0.3163    2.3381    0.1384 C   0  0  0  0  0  0  0  0  0  0  0  0
   -0.0491    3.7647   -0.1295 N   0  0  0  0  0  0  0  0  0  0  0  0
   -1.1639    4.2171   -0.8991 C   0  0  0  0  0  0  0  0  0  0  0  0
   -1.1059    5.6127   -1.4146 C   0  0  0  0  0  0  0  0  0  0  0  0
    0.2014    4.3896    1.1115 C   0  0  0  0  0  0  0  0  0  0  0  0
    0.5156    5.8510    1.0312 C   0  0  0  0  0  0  0  0  0  0  0  0
   -2.1098   -0.2174   -0.0695 O   0  0  0  0  0  0  0  0  0  0  0  0
   -3.4516   -0.2225   -0.3197 C   0  0  0  0  0  0  0  0  0  0  0  0
   -4.1599   -1.5215   -0.1585 C   0  0  0  0  0  0  0  0  0  0  0  0
   -5.5754   -1.4757   -0.4347 N   0  0  0  0  0  0  0  0  0  0  0  0
   -6.1586   -2.7783   -0.2494 C   0  0  0  0  0  0  0  0  0  0  0  0
   -6.1924   -3.2481    1.1608 C   0  0  0  0  0  0  0  0  0  0  0  0
   -6.2478   -0.4278    0.2836 C   0  0  0  0  0  0  0  0  0  0  0  0
   -7.7259   -0.4728   -0.0413 C   0  0  0  0  0  0  0  0  0  0  0  0
    7.0502   -1.9031   -3.1041 H   0  0  0  0  0  0  0  0  0  0  0  0
    5.6311   -2.6615   -2.3316 H   0  0  0  0  0  0  0  0  0  0  0  0
    7.2951   -3.1186   -1.7438 H   0  0  0  0  0  0  0  0  0  0  0  0
    7.6101   -0.6154   -1.1371 H   0  0  0  0  0  0  0  0  0  0  0  0
    5.8598   -0.4163   -1.5923 H   0  0  0  0  0  0  0  0  0  0  0  0
    7.0971   -3.4006    0.2737 H   0  0  0  0  0  0  0  0  0  0  0  0
    7.9223   -2.0720    1.1189 H   0  0  0  0  0  0  0  0  0  0  0  0
    6.7071   -3.7051    2.6214 H   0  0  0  0  0  0  0  0  0  0  0  0
    6.1821   -2.0395    2.8593 H   0  0  0  0  0  0  0  0  0  0  0  0
    5.1565   -3.1776    1.9422 H   0  0  0  0  0  0  0  0  0  0  0  0
    4.7853   -1.2205    1.6459 H   0  0  0  0  0  0  0  0  0  0  0  0
    5.0039    0.1398    0.5162 H   0  0  0  0  0  0  0  0  0  0  0  0
    3.7574   -2.5299   -0.2195 H   0  0  0  0  0  0  0  0  0  0  0  0
    3.9581   -1.1474   -1.3339 H   0  0  0  0  0  0  0  0  0  0  0  0
    2.2094   -2.4567   -1.9315 H   0  0  0  0  0  0  0  0  0  0  0  0
    0.0757   -2.9196   -2.9965 H   0  0  0  0  0  0  0  0  0  0  0  0
   -1.9265   -1.9088   -2.1910 H   0  0  0  0  0  0  0  0  0  0  0  0
    1.7508    1.7586    0.5325 H   0  0  0  0  0  0  0  0  0  0  0  0
    0.7184    2.0808    2.0015 H   0  0  0  0  0  0  0  0  0  0  0  0
   -1.2696    2.3459    0.7206 H   0  0  0  0  0  0  0  0  0  0  0  0
   -0.4597    1.8762   -0.8551 H   0  0  0  0  0  0  0  0  0  0  0  0
   -2.0903    4.0299   -0.2940 H   0  0  0  0  0  0  0  0  0  0  0  0
   -1.3068    3.5359   -1.7952 H   0  0  0  0  0  0  0  0  0  0  0  0
   -1.4832    5.6487   -2.4861 H   0  0  0  0  0  0  0  0  0  0  0  0
   -1.8699    6.2192   -0.8449 H   0  0  0  0  0  0  0  0  0  0  0  0
   -0.1271    6.0864   -1.4215 H   0  0  0  0  0  0  0  0  0  0  0  0
   -0.6590    4.2798    1.8153 H   0  0  0  0  0  0  0  0  0  0  0  0
    1.1054    3.8961    1.5576 H   0  0  0  0  0  0  0  0  0  0  0  0
   -0.3606    6.4891    0.9067 H   0  0  0  0  0  0  0  0  0  0  0  0
    0.9448    6.1112    2.0647 H   0  0  0  0  0  0  0  0  0  0  0  0
    1.3667    6.0625    0.3576 H   0  0  0  0  0  0  0  0  0  0  0  0
   -3.9400    0.4905    0.4123 H   0  0  0  0  0  0  0  0  0  0  0  0
   -3.6451    0.2456   -1.3077 H   0  0  0  0  0  0  0  0  0  0  0  0
   -3.9939   -1.9283    0.8830 H   0  0  0  0  0  0  0  0  0  0  0  0
   -3.7363   -2.2864   -0.8238 H   0  0  0  0  0  0  0  0  0  0  0  0
   -7.1588   -2.8098   -0.6979 H   0  0  0  0  0  0  0  0  0  0  0  0
   -5.5291   -3.4926   -0.8528 H   0  0  0  0  0  0  0  0  0  0  0  0
   -5.6414   -2.6038    1.8746 H   0  0  0  0  0  0  0  0  0  0  0  0
   -7.2593   -3.3858    1.4696 H   0  0  0  0  0  0  0  0  0  0  0  0
   -5.7328   -4.2545    1.2296 H   0  0  0  0  0  0  0  0  0  0  0  0
   -6.1296   -0.4497    1.3645 H   0  0  0  0  0  0  0  0  0  0  0  0
   -5.9098    0.5866   -0.0520 H   0  0  0  0  0  0  0  0  0  0  0  0
   -7.9352   -0.2204   -1.1039 H   0  0  0  0  0  0  0  0  0  0  0  0
   -8.2252   -1.4079    0.2878 H   0  0  0  0  0  0  0  0  0  0  0  0
   -8.2070    0.3424    0.5702 H   0  0  0  0  0  0  0  0  0  0  0  0
  1  2  1  0
  2  3  1  0
  3  4  1  0
  4  5  1  0
  3  6  1  0
  6  7  1  0
  7  8  1  0
  8  9  1  0
  9 10  2  0
 10 11  1  0
 11 12  2  0
 12 13  1  0
 13 14  2  0
  9 14  1  0
 14 15  1  0
 15 16  1  0
 16 17  1  0
 17 18  1  0
 18 19  1  0
 19 20  1  0
 18 21  1  0
 21 22  1  0
 13 23  1  0
 23 24  1  0
 24 25  1  0
 25 26  1  0
 26 27  1  0
 27 28  1  0
 26 29  1  0
 29 30  1  0
  1 31  1  0
  1 32  1  0
  1 33  1  0
  2 34  1  0
  2 35  1  0
  4 36  1  0
  4 37  1  0
  5 38  1  0
  5 39  1  0
  5 40  1  0
  6 41  1  0
  6 42  1  0
  7 43  1  0
  7 44  1  0
 10 45  1  0
 11 46  1  0
 12 47  1  0
 16 48  1  0
 16 49  1  0
 17 50  1  0
 17 51  1  0
 19 52  1  0
 19 53  1  0
 20 54  1  0
 20 55  1  0
 20 56  1  0
 21 57  1  0
 21 58  1  0
 22 59  1  0
 22 60  1  0
 22 61  1  0
 24 62  1  0
 24 63  1  0
 25 64  1  0
 25 65  1  0
 27 66  1  0
 27 67  1  0
 28 68  1  0
 28 69  1  0
 28 70  1  0
 29 71  1  0
 29 72  1  0
 30 73  1  0
 30 74  1  0
 30 75  1  0
M  END

