404772329
     RDKit          3D

 62 67  0  0  0  0  0  0  0  0999 V2000
    8.0916    1.9774   -0.8101 C   0  0  0  0  0  0  0  0  0  0  0  0
    7.3799    1.2800   -1.9403 C   0  0  0  0  0  0  0  0  0  0  0  0
    7.9688   -0.1037   -2.0855 C   0  0  0  0  0  0  0  0  0  0  0  0
    5.8963    1.1835   -1.7062 C   0  0  0  0  0  0  0  0  0  0  0  0
    5.5730    0.4159   -0.4503 C   0  0  0  0  0  0  0  0  0  0  0  0
    6.5433   -0.0106    0.1817 O   0  0  0  0  0  0  0  0  0  0  0  0
    4.2465    0.2180   -0.0557 N   0  0  0  0  0  0  0  0  0  0  0  0
    3.8767   -0.4918    1.1000 C   0  0  0  0  0  0  0  0  0  0  0  0
    2.5556   -0.4007    1.5412 C   0  0  0  0  0  0  0  0  0  0  0  0
    2.0641   -1.0539    2.6425 C   0  0  0  0  0  0  0  0  0  0  0  0
    2.9331   -1.8476    3.3533 C   0  0  0  0  0  0  0  0  0  0  0  0
    4.2080   -1.9522    2.9501 N   0  0  0  0  0  0  0  0  0  0  0  0
    4.6934   -1.2975    1.8490 C   0  0  0  0  0  0  0  0  0  0  0  0
    0.6861   -0.9464    3.0865 C   0  0  0  0  0  0  0  0  0  0  0  0
   -0.2963   -0.7610    2.1393 C   0  0  0  0  0  0  0  0  0  0  0  0
   -1.6140   -0.6514    2.5013 C   0  0  0  0  0  0  0  0  0  0  0  0
   -1.9329   -0.7340    3.8697 C   0  0  0  0  0  0  0  0  0  0  0  0
   -3.2751   -0.5940    3.9071 N   0  0  0  0  0  0  0  0  0  0  0  0
   -3.7486   -0.4400    2.6937 N   0  0  0  0  0  0  0  0  0  0  0  0
   -2.7461   -0.4683    1.7693 C   0  0  0  0  0  0  0  0  0  0  0  0
   -2.9884   -0.3206    0.3424 C   0  0  0  0  0  0  0  0  0  0  0  0
   -4.2510   -0.1398   -0.1741 N   0  0  0  0  0  0  0  0  0  0  0  0
   -4.2085   -0.0312   -1.4960 C   0  0  0  0  0  0  0  0  0  0  0  0
   -5.1857    0.1585   -2.4779 C   0  0  0  0  0  0  0  0  0  0  0  0
   -4.7872    0.2257   -3.7692 C   0  0  0  0  0  0  0  0  0  0  0  0
   -3.4809    0.1121   -4.0940 N   0  0  0  0  0  0  0  0  0  0  0  0
   -2.5126   -0.0724   -3.1592 C   0  0  0  0  0  0  0  0  0  0  0  0
   -2.8922   -0.1429   -1.8533 C   0  0  0  0  0  0  0  0  0  0  0  0
   -2.1713   -0.3196   -0.7005 N   0  0  0  0  0  0  0  0  0  0  0  0
   -6.5577    0.2723   -2.0563 C   0  0  0  0  0  0  0  0  0  0  0  0
   -7.0814   -0.5923   -1.1227 C   0  0  0  0  0  0  0  0  0  0  0  0
   -8.4161   -0.4470   -0.7407 C   0  0  0  0  0  0  0  0  0  0  0  0
   -9.2208    0.5346   -1.2704 C   0  0  0  0  0  0  0  0  0  0  0  0
   -8.6652    1.3847   -2.2038 C   0  0  0  0  0  0  0  0  0  0  0  0
   -9.4884    2.3504   -2.7121 F   0  0  0  0  0  0  0  0  0  0  0  0
   -7.3431    1.2621   -2.6005 C   0  0  0  0  0  0  0  0  0  0  0  0
   -0.9684   -0.9188    4.8330 C   0  0  0  0  0  0  0  0  0  0  0  0
    0.3421   -1.0248    4.4372 C   0  0  0  0  0  0  0  0  0  0  0  0
    7.4304    2.6763   -0.2605 H   0  0  0  0  0  0  0  0  0  0  0  0
    8.9672    2.5150   -1.2717 H   0  0  0  0  0  0  0  0  0  0  0  0
    8.5329    1.2210   -0.1208 H   0  0  0  0  0  0  0  0  0  0  0  0
    7.5241    1.8607   -2.8720 H   0  0  0  0  0  0  0  0  0  0  0  0
    7.1904   -0.8301   -2.3753 H   0  0  0  0  0  0  0  0  0  0  0  0
    8.7967   -0.0632   -2.8326 H   0  0  0  0  0  0  0  0  0  0  0  0
    8.4215   -0.4754   -1.1489 H   0  0  0  0  0  0  0  0  0  0  0  0
    5.4257    0.6590   -2.5609 H   0  0  0  0  0  0  0  0  0  0  0  0
    5.4165    2.1566   -1.6118 H   0  0  0  0  0  0  0  0  0  0  0  0
    3.4655    0.6379   -0.6869 H   0  0  0  0  0  0  0  0  0  0  0  0
    1.8912    0.2277    0.9696 H   0  0  0  0  0  0  0  0  0  0  0  0
    2.5685   -2.3697    4.2217 H   0  0  0  0  0  0  0  0  0  0  0  0
    5.7254   -1.4316    1.5729 H   0  0  0  0  0  0  0  0  0  0  0  0
   -0.0191   -0.7035    1.1182 H   0  0  0  0  0  0  0  0  0  0  0  0
   -3.7891   -0.6173    4.8239 H   0  0  0  0  0  0  0  0  0  0  0  0
   -5.5147    0.3736   -4.5775 H   0  0  0  0  0  0  0  0  0  0  0  0
   -1.4859   -0.1602   -3.4325 H   0  0  0  0  0  0  0  0  0  0  0  0
   -1.1345   -0.4323   -0.6926 H   0  0  0  0  0  0  0  0  0  0  0  0
   -6.5008   -1.3877   -0.6665 H   0  0  0  0  0  0  0  0  0  0  0  0
   -8.7894   -1.1415   -0.0082 H   0  0  0  0  0  0  0  0  0  0  0  0
  -10.2716    0.6475   -0.9683 H   0  0  0  0  0  0  0  0  0  0  0  0
   -6.9696    1.9722   -3.3454 H   0  0  0  0  0  0  0  0  0  0  0  0
   -1.2617   -0.9751    5.8623 H   0  0  0  0  0  0  0  0  0  0  0  0
    1.1540   -1.1715    5.1451 H   0  0  0  0  0  0  0  0  0  0  0  0
  1  2  1  0
  2  3  1  0
  2  4  1  0
  4  5  1  0
  5  6  2  0
  5  7  1  0
  7  8  1  0
  8  9  2  0
  9 10  1  0
 10 11  2  0
 11 12  1  0
 12 13  2  0
  8 13  1  0
 10 14  1  0
 14 15  2  0
 15 16  1  0
 16 17  2  0
 17 18  1  0
 18 19  1  0
 19 20  2  0
 16 20  1  0
 20 21  1  0
 21 22  2  0
 22 23  1  0
 23 24  2  0
 24 25  1  0
 25 26  2  0
 26 27  1  0
 27 28  2  0
 23 28  1  0
 28 29  1  0
 21 29  1  0
 24 30  1  0
 30 31  2  0
 31 32  1  0
 32 33  2  0
 33 34  1  0
 34 35  1  0
 34 36  2  0
 30 36  1  0
 17 37  1  0
 37 38  2  0
 14 38  1  0
  1 39  1  0
  1 40  1  0
  1 41  1  0
  2 42  1  0
  3 43  1  0
  3 44  1  0
  3 45  1  0
  4 46  1  0
  4 47  1  0
  7 48  1  0
  9 49  1  0
 11 50  1  0
 13 51  1  0
 15 52  1  0
 18 53  1  0
 25 54  1  0
 27 55  1  0
 29 56  1  0
 31 57  1  0
 32 58  1  0
 33 59  1  0
 36 60  1  0
 37 61  1  0
 38 62  1  0
M  END

