404770940
     RDKit          3D

 75 79  0  0  1  0  0  0  0  0999 V2000
    1.0037   -3.6175   -1.6958 C   0  0  0  0  0  0  0  0  0  0  0  0
   -8.1299    0.9715    2.0765 C   0  0  0  0  0  0  0  0  0  0  0  0
    7.7649    3.4781   -0.8041 C   0  0  0  0  0  0  0  0  0  0  0  0
   -5.0618    1.9865   -2.4597 C   0  0  0  0  0  0  0  0  0  0  0  0
    2.4594    4.9022   -1.0890 C   0  0  0  0  0  0  0  0  0  0  0  0
    0.2165   -3.4780   -0.4249 C   0  0  0  0  0  0  0  0  0  0  0  0
   -3.9905   -1.7529    2.7622 C   0  0  0  0  0  0  0  0  0  0  0  0
    5.1849   -0.9038   -0.4437 C   0  0  0  0  0  0  0  0  0  0  0  0
   -3.2946   -2.8682    1.9358 C   0  0  0  0  0  0  0  0  0  0  0  0
    4.2787   -1.4437    0.6291 C   0  0  0  0  0  0  0  0  0  0  0  0
   -1.1904   -0.4179    0.1439 C   0  0  0  0  0  0  0  0  0  0  0  0
    1.1013    0.1751   -0.2530 C   0  0  0  0  0  0  0  0  0  0  0  0
   -5.6491   -0.2211    1.7985 C   0  0  0  0  0  0  0  0  0  0  0  0
    5.7736    1.4816   -0.6727 C   0  0  0  0  0  0  0  0  0  0  0  0
   -4.1120    0.2258   -0.4737 C   0  0  0  0  0  0  0  0  0  0  0  0
    3.1305    2.1630   -0.7916 C   0  0  0  0  0  0  0  0  0  0  0  0
    2.0929   -2.3158    0.7033 C   0  0  0  0  0  0  0  0  0  0  0  0
    0.6318   -2.2304    0.3916 C   0  0  1  0  0  0  0  0  0  0  0  0
   -4.4253   -0.8128    1.6535 C   0  0  0  0  0  0  0  0  0  0  0  0
    4.7987    0.5187   -0.6085 C   0  0  0  0  0  0  0  0  0  0  0  0
    0.1323   -0.9974   -0.1904 C   0  0  1  0  0  0  0  0  0  0  0  0
   -3.6339   -0.6244    0.5547 C   0  0  0  0  0  0  0  0  0  0  0  0
    3.4479    0.8394   -0.6672 C   0  0  0  0  0  0  0  0  0  0  0  0
   -2.3633   -1.3271    0.3360 C   0  0  2  0  0  0  0  0  0  0  0  0
    2.4837   -0.2884   -0.5920 C   0  0  1  0  0  0  0  0  0  0  0  0
   -6.1097    0.6076    0.7796 C   0  0  0  0  0  0  0  0  0  0  0  0
    5.4440    2.7932   -0.7960 C   0  0  0  0  0  0  0  0  0  0  0  0
   -5.3334    0.8213   -0.3482 C   0  0  0  0  0  0  0  0  0  0  0  0
    4.1035    3.1597   -0.8576 C   0  0  0  0  0  0  0  0  0  0  0  0
   -2.1001   -2.2423    1.4066 N   0  0  0  0  0  0  0  0  0  0  0  0
    2.9188   -1.2336    0.3366 N   0  0  0  0  0  0  0  0  0  0  0  0
   -7.3397    1.2100    0.9056 O   0  0  0  0  0  0  0  0  0  0  0  0
    6.3829    3.8242   -0.8665 O   0  0  0  0  0  0  0  0  0  0  0  0
   -5.8350    1.6550   -1.3392 O   0  0  0  0  0  0  0  0  0  0  0  0
    3.8096    4.4984   -0.9837 O   0  0  0  0  0  0  0  0  0  0  0  0
    1.2099   -2.6217   -2.1011 H   0  0  0  0  0  0  0  0  0  0  0  0
    2.0093   -4.1035   -1.5260 H   0  0  0  0  0  0  0  0  0  0  0  0
    0.4330   -4.1739   -2.4655 H   0  0  0  0  0  0  0  0  0  0  0  0
   -7.5608    1.1231    2.9976 H   0  0  0  0  0  0  0  0  0  0  0  0
   -8.4017   -0.1249    2.0422 H   0  0  0  0  0  0  0  0  0  0  0  0
   -9.0364    1.5943    2.0823 H   0  0  0  0  0  0  0  0  0  0  0  0
    7.9508    2.8426    0.1040 H   0  0  0  0  0  0  0  0  0  0  0  0
    8.1030    2.9096   -1.6858 H   0  0  0  0  0  0  0  0  0  0  0  0
    8.3909    4.3643   -0.6975 H   0  0  0  0  0  0  0  0  0  0  0  0
   -5.4300    2.9935   -2.8083 H   0  0  0  0  0  0  0  0  0  0  0  0
   -5.2885    1.3234   -3.3301 H   0  0  0  0  0  0  0  0  0  0  0  0
   -3.9922    2.0416   -2.2604 H   0  0  0  0  0  0  0  0  0  0  0  0
    2.0440    4.7518   -2.0838 H   0  0  0  0  0  0  0  0  0  0  0  0
    1.8959    4.3724   -0.2821 H   0  0  0  0  0  0  0  0  0  0  0  0
    2.3172    5.9962   -0.8384 H   0  0  0  0  0  0  0  0  0  0  0  0
   -0.8696   -3.4508   -0.6859 H   0  0  0  0  0  0  0  0  0  0  0  0
    0.3541   -4.4106    0.1592 H   0  0  0  0  0  0  0  0  0  0  0  0
   -3.1877   -1.2277    3.3126 H   0  0  0  0  0  0  0  0  0  0  0  0
   -4.7448   -2.1319    3.3802 H   0  0  0  0  0  0  0  0  0  0  0  0
    6.2492   -0.8929   -0.0751 H   0  0  0  0  0  0  0  0  0  0  0  0
    5.1814   -1.4775   -1.3778 H   0  0  0  0  0  0  0  0  0  0  0  0
   -3.9689   -3.0829    1.0972 H   0  0  0  0  0  0  0  0  0  0  0  0
   -3.1097   -3.7439    2.5328 H   0  0  0  0  0  0  0  0  0  0  0  0
    4.4509   -2.5514    0.7800 H   0  0  0  0  0  0  0  0  0  0  0  0
    4.6307   -0.9965    1.5837 H   0  0  0  0  0  0  0  0  0  0  0  0
   -1.0954    0.1994    1.0855 H   0  0  0  0  0  0  0  0  0  0  0  0
   -1.3976    0.3593   -0.6546 H   0  0  0  0  0  0  0  0  0  0  0  0
    1.1083    0.6777    0.7185 H   0  0  0  0  0  0  0  0  0  0  0  0
    0.7752    0.9119   -1.0207 H   0  0  0  0  0  0  0  0  0  0  0  0
   -6.2380   -0.4014    2.7002 H   0  0  0  0  0  0  0  0  0  0  0  0
    6.8479    1.2314   -0.6284 H   0  0  0  0  0  0  0  0  0  0  0  0
   -3.4423    0.3462   -1.3095 H   0  0  0  0  0  0  0  0  0  0  0  0
    2.0968    2.4223   -0.8351 H   0  0  0  0  0  0  0  0  0  0  0  0
    2.2467   -2.4916    1.8040 H   0  0  0  0  0  0  0  0  0  0  0  0
    2.5063   -3.2440    0.2374 H   0  0  0  0  0  0  0  0  0  0  0  0
    0.1559   -2.4641    1.3977 H   0  0  0  0  0  0  0  0  0  0  0  0
    0.0142   -1.2384   -1.3351 H   0  0  0  0  0  0  0  0  0  0  0  0
   -2.5098   -1.8373   -0.6687 H   0  0  0  0  0  0  0  0  0  0  0  0
    2.4805   -0.7079   -1.6319 H   0  0  0  0  0  0  0  0  0  0  0  0
   -1.7698   -1.6224    2.2310 H   0  0  0  0  0  0  0  0  0  0  0  0
  1  6  1  0
  7  9  1  0
  8 10  1  0
 18  6  1  0
 17 18  1  0
  7 19  1  0
 13 19  2  0
  8 20  1  0
 14 20  2  0
 21 11  1  0
 12 21  1  0
 18 21  1  0
 15 22  2  0
 19 22  1  0
 16 23  2  0
 20 23  1  0
 24 11  1  0
 22 24  1  0
 12 25  1  0
 23 25  1  0
 13 26  1  0
 14 27  1  0
 15 28  1  0
 26 28  2  0
 16 29  1  0
 27 29  2  0
  9 30  1  0
 24 30  1  0
 10 31  1  0
 17 31  1  0
 25 31  1  0
  2 32  1  0
 26 32  1  0
  3 33  1  0
 27 33  1  0
  4 34  1  0
 28 34  1  0
  5 35  1  0
 29 35  1  0
  1 36  1  0
  1 37  1  0
  1 38  1  0
  2 39  1  0
  2 40  1  0
  2 41  1  0
  3 42  1  0
  3 43  1  0
  3 44  1  0
  4 45  1  0
  4 46  1  0
  4 47  1  0
  5 48  1  0
  5 49  1  0
  5 50  1  0
  6 51  1  0
  6 52  1  0
  7 53  1  0
  7 54  1  0
  8 55  1  0
  8 56  1  0
  9 57  1  0
  9 58  1  0
 10 59  1  0
 10 60  1  0
 11 61  1  0
 11 62  1  0
 12 63  1  0
 12 64  1  0
 13 65  1  0
 14 66  1  0
 15 67  1  0
 16 68  1  0
 17 69  1  0
 17 70  1  0
 18 71  1  1
 21 72  1  6
 24 73  1  6
 25 74  1  6
 30 75  1  0
M  END

