404772334
     RDKit          3D

 49 51  0  0  0  0  0  0  0  0999 V2000
   -0.2864   -3.8739   -0.1388 C   0  0  0  0  0  0  0  0  0  0  0  0
   -0.8242   -2.7416    0.7324 C   0  0  0  0  0  0  0  0  0  0  0  0
   -1.9263   -3.5015    1.5392 C   0  0  0  0  0  0  0  0  0  0  0  0
   -1.4783   -1.7324   -0.1188 C   0  0  0  0  0  0  0  0  0  0  0  0
   -1.1028   -0.3581    0.0397 C   0  0  0  0  0  0  0  0  0  0  0  0
   -1.7936    0.5249   -0.6489 N   0  0  0  0  0  0  0  0  0  0  0  0
   -1.6505    1.9690   -0.6538 C   0  0  0  0  0  0  0  0  0  0  0  0
   -2.6079    2.7438    0.1588 C   0  0  0  0  0  0  0  0  0  0  0  0
   -2.3888    4.2845    0.0204 C   0  0  0  0  0  0  0  0  0  0  0  0
   -3.6844    3.6084   -0.4014 C   0  0  0  0  0  0  0  0  0  0  0  0
   -2.8248    0.1520   -1.4828 C   0  0  0  0  0  0  0  0  0  0  0  0
   -3.4850    1.0371   -2.1453 O   0  0  0  0  0  0  0  0  0  0  0  0
   -3.1635   -1.1248   -1.6271 N   0  0  0  0  0  0  0  0  0  0  0  0
   -2.5049   -2.0917   -0.9531 C   0  0  0  0  0  0  0  0  0  0  0  0
   -2.8292   -3.3000   -1.0864 O   0  0  0  0  0  0  0  0  0  0  0  0
    0.0688   -0.0954    0.8669 C   0  0  0  0  0  0  0  0  0  0  0  0
   -0.1933   -0.1328    2.1371 O   0  0  0  0  0  0  0  0  0  0  0  0
    1.4234    0.1580    0.4727 C   0  0  0  0  0  0  0  0  0  0  0  0
    2.4369   -0.5300    1.1786 C   0  0  0  0  0  0  0  0  0  0  0  0
    3.7666   -0.3659    0.9712 C   0  0  0  0  0  0  0  0  0  0  0  0
    4.8425   -1.1181    1.6951 C   0  0  0  0  0  0  0  0  0  0  0  0
    4.2140    0.5401    0.0102 C   0  0  0  0  0  0  0  0  0  0  0  0
    3.2672    1.2364   -0.6996 C   0  0  0  0  0  0  0  0  0  0  0  0
    3.6821    2.2743   -1.7011 C   0  0  0  0  0  0  0  0  0  0  0  0
    1.8959    1.0271   -0.4542 C   0  0  0  0  0  0  0  0  0  0  0  0
   -0.5962   -4.8653    0.1344 H   0  0  0  0  0  0  0  0  0  0  0  0
   -0.4372   -3.6671   -1.1943 H   0  0  0  0  0  0  0  0  0  0  0  0
    0.8435   -3.8313    0.0889 H   0  0  0  0  0  0  0  0  0  0  0  0
   -0.1583   -2.3210    1.4418 H   0  0  0  0  0  0  0  0  0  0  0  0
   -1.3854   -3.9860    2.3607 H   0  0  0  0  0  0  0  0  0  0  0  0
   -2.7018   -2.8581    1.9032 H   0  0  0  0  0  0  0  0  0  0  0  0
   -2.2940   -4.3526    0.8915 H   0  0  0  0  0  0  0  0  0  0  0  0
   -0.6623    2.2085   -0.1746 H   0  0  0  0  0  0  0  0  0  0  0  0
   -1.5335    2.3970   -1.6944 H   0  0  0  0  0  0  0  0  0  0  0  0
   -2.7584    2.4275    1.2051 H   0  0  0  0  0  0  0  0  0  0  0  0
   -2.3484    4.8901    0.9197 H   0  0  0  0  0  0  0  0  0  0  0  0
   -1.7205    4.6348   -0.7778 H   0  0  0  0  0  0  0  0  0  0  0  0
   -3.9238    3.7227   -1.4477 H   0  0  0  0  0  0  0  0  0  0  0  0
   -4.5550    3.8373    0.2714 H   0  0  0  0  0  0  0  0  0  0  0  0
   -3.9574   -1.4607   -2.2496 H   0  0  0  0  0  0  0  0  0  0  0  0
    2.1055   -1.2458    1.9498 H   0  0  0  0  0  0  0  0  0  0  0  0
    4.9315   -0.8242    2.7529 H   0  0  0  0  0  0  0  0  0  0  0  0
    5.8058   -0.9711    1.1870 H   0  0  0  0  0  0  0  0  0  0  0  0
    4.6223   -2.2180    1.5962 H   0  0  0  0  0  0  0  0  0  0  0  0
    5.2951    0.6575   -0.1707 H   0  0  0  0  0  0  0  0  0  0  0  0
    2.7898    2.8802   -2.0230 H   0  0  0  0  0  0  0  0  0  0  0  0
    4.3582    2.9581   -1.1078 H   0  0  0  0  0  0  0  0  0  0  0  0
    4.2316    1.8023   -2.5043 H   0  0  0  0  0  0  0  0  0  0  0  0
    1.1954    1.5954   -1.0694 H   0  0  0  0  0  0  0  0  0  0  0  0
  1  2  1  0
  2  3  1  0
  2  4  1  0
  4  5  2  0
  5  6  1  0
  6  7  1  0
  7  8  1  0
  8  9  1  0
  9 10  1  0
  8 10  1  0
  6 11  1  0
 11 12  2  0
 11 13  1  0
 13 14  1  0
  4 14  1  0
 14 15  2  0
  5 16  1  0
 16 17  2  0
 16 18  1  0
 18 19  2  0
 19 20  1  0
 20 21  1  0
 20 22  2  0
 22 23  1  0
 23 24  1  0
 23 25  2  0
 18 25  1  0
  1 26  1  0
  1 27  1  0
  1 28  1  0
  2 29  1  0
  3 30  1  0
  3 31  1  0
  3 32  1  0
  7 33  1  0
  7 34  1  0
  8 35  1  0
  9 36  1  0
  9 37  1  0
 10 38  1  0
 10 39  1  0
 13 40  1  0
 19 41  1  0
 21 42  1  0
 21 43  1  0
 21 44  1  0
 22 45  1  0
 24 46  1  0
 24 47  1  0
 24 48  1  0
 25 49  1  0
M  END

