404772220
     RDKit          3D

 58 63  0  0  0  0  0  0  0  0999 V2000
   10.0087    1.6898    0.1648 N   0  0  0  0  0  0  0  0  0  0  0  0
    8.6718    1.5901   -0.1431 C   0  0  0  0  0  0  0  0  0  0  0  0
    8.1410    2.6008   -1.1241 C   0  0  0  0  0  0  0  0  0  0  0  0
    6.8790    2.5222   -1.4502 N   0  0  0  0  0  0  0  0  0  0  0  0
    6.0062    1.6325   -0.9991 C   0  0  0  0  0  0  0  0  0  0  0  0
    6.4926    0.6449   -0.0439 C   0  0  0  0  0  0  0  0  0  0  0  0
    7.7047    0.8130    0.1943 N   0  0  0  0  0  0  0  0  0  0  0  0
    5.5043   -0.3197    0.3894 C   0  0  0  0  0  0  0  0  0  0  0  0
    5.7889   -1.3910    1.1715 C   0  0  0  0  0  0  0  0  0  0  0  0
    4.8457   -2.3135    1.5359 N   0  0  0  0  0  0  0  0  0  0  0  0
    4.9301   -3.4238    2.2778 C   0  0  0  0  0  0  0  0  0  0  0  0
    3.6550   -3.9860    2.3279 C   0  0  0  0  0  0  0  0  0  0  0  0
    2.8430   -3.1655    1.5931 N   0  0  0  0  0  0  0  0  0  0  0  0
    3.6031   -2.1789    1.1347 C   0  0  0  0  0  0  0  0  0  0  0  0
    3.2240   -1.0720    0.3112 C   0  0  0  0  0  0  0  0  0  0  0  0
    1.9267   -0.9220   -0.0036 N   0  0  0  0  0  0  0  0  0  0  0  0
    0.6274   -0.7108   -0.3586 C   0  0  0  0  0  0  0  0  0  0  0  0
    0.1108    0.2411   -1.2049 C   0  0  0  0  0  0  0  0  0  0  0  0
   -1.2372    0.4533   -1.4089 C   0  0  0  0  0  0  0  0  0  0  0  0
   -2.1499   -0.3365   -0.7313 C   0  0  0  0  0  0  0  0  0  0  0  0
   -1.6928   -1.2990    0.1122 C   0  0  0  0  0  0  0  0  0  0  0  0
   -0.3559   -1.5053    0.3174 C   0  0  0  0  0  0  0  0  0  0  0  0
   -3.5260    0.0035   -0.8553 N   0  0  0  0  0  0  0  0  0  0  0  0
   -3.7863    1.4696   -0.7811 C   0  0  0  0  0  0  0  0  0  0  0  0
   -4.8247    1.5224    0.3660 C   0  0  0  0  0  0  0  0  0  0  0  0
   -5.9849    0.8779   -0.1423 N   0  0  0  0  0  0  0  0  0  0  0  0
   -5.8973   -0.4861   -0.4999 C   0  0  0  0  0  0  0  0  0  0  0  0
   -4.5700   -0.9233   -1.0321 C   0  0  0  0  0  0  0  0  0  0  0  0
   -7.1867    1.3238    0.4979 C   0  0  0  0  0  0  0  0  0  0  0  0
   -8.4120    1.3019   -0.3577 C   0  0  0  0  0  0  0  0  0  0  0  0
   -8.8208    0.1761    0.3030 O   0  0  0  0  0  0  0  0  0  0  0  0
   -7.9323    0.3877    1.3768 C   0  0  0  0  0  0  0  0  0  0  0  0
    4.2081   -0.2337    0.0002 N   0  0  0  0  0  0  0  0  0  0  0  0
   10.7672    1.3238   -0.4573 H   0  0  0  0  0  0  0  0  0  0  0  0
   10.3778    2.1486    1.0456 H   0  0  0  0  0  0  0  0  0  0  0  0
    8.8434    3.2904   -1.4709 H   0  0  0  0  0  0  0  0  0  0  0  0
    4.9908    1.5633   -1.2859 H   0  0  0  0  0  0  0  0  0  0  0  0
    6.7956   -1.5124    1.5299 H   0  0  0  0  0  0  0  0  0  0  0  0
    5.8233   -3.7868    2.7375 H   0  0  0  0  0  0  0  0  0  0  0  0
    3.3834   -4.8759    2.8347 H   0  0  0  0  0  0  0  0  0  0  0  0
    2.2082    0.3817   -0.4110 H   0  0  0  0  0  0  0  0  0  0  0  0
    0.8028    0.8693   -1.7820 H   0  0  0  0  0  0  0  0  0  0  0  0
   -1.6401    1.1920   -2.0765 H   0  0  0  0  0  0  0  0  0  0  0  0
   -2.4820   -1.9100    0.6198 H   0  0  0  0  0  0  0  0  0  0  0  0
   -0.0185   -2.2757    0.9773 H   0  0  0  0  0  0  0  0  0  0  0  0
   -4.2682    1.7565   -1.6958 H   0  0  0  0  0  0  0  0  0  0  0  0
   -2.8797    1.9969   -0.5022 H   0  0  0  0  0  0  0  0  0  0  0  0
   -5.0513    2.5729    0.6361 H   0  0  0  0  0  0  0  0  0  0  0  0
   -4.3669    1.0170    1.2287 H   0  0  0  0  0  0  0  0  0  0  0  0
   -6.2997   -1.1895    0.2829 H   0  0  0  0  0  0  0  0  0  0  0  0
   -6.6225   -0.6457   -1.3511 H   0  0  0  0  0  0  0  0  0  0  0  0
   -4.6216   -1.2188   -2.1349 H   0  0  0  0  0  0  0  0  0  0  0  0
   -4.2924   -1.8565   -0.5140 H   0  0  0  0  0  0  0  0  0  0  0  0
   -6.9903    2.2851    1.0410 H   0  0  0  0  0  0  0  0  0  0  0  0
   -9.0590    2.2144   -0.1462 H   0  0  0  0  0  0  0  0  0  0  0  0
   -8.2465    1.2671   -1.4388 H   0  0  0  0  0  0  0  0  0  0  0  0
   -8.5079    0.9255    2.1842 H   0  0  0  0  0  0  0  0  0  0  0  0
   -7.4403   -0.5166    1.7482 H   0  0  0  0  0  0  0  0  0  0  0  0
  1  2  1  0
  2  3  2  0
  3  4  1  0
  4  5  2  0
  5  6  1  0
  6  7  2  0
  2  7  1  0
  6  8  1  0
  8  9  2  0
  9 10  1  0
 10 11  1  0
 11 12  2  0
 12 13  1  0
 13 14  2  0
 10 14  1  0
 14 15  1  0
 15 16  1  0
 16 17  1  0
 17 18  2  0
 18 19  1  0
 19 20  2  0
 20 21  1  0
 21 22  2  0
 17 22  1  0
 20 23  1  0
 23 24  1  0
 24 25  1  0
 25 26  1  0
 26 27  1  0
 27 28  1  0
 23 28  1  0
 26 29  1  0
 29 30  1  0
 30 31  1  0
 31 32  1  0
 29 32  1  0
 15 33  2  0
  8 33  1  0
  1 34  1  0
  1 35  1  0
  3 36  1  0
  5 37  1  0
  9 38  1  0
 11 39  1  0
 12 40  1  0
 16 41  1  0
 18 42  1  0
 19 43  1  0
 21 44  1  0
 22 45  1  0
 24 46  1  0
 24 47  1  0
 25 48  1  0
 25 49  1  0
 27 50  1  0
 27 51  1  0
 28 52  1  0
 28 53  1  0
 29 54  1  0
 30 55  1  0
 30 56  1  0
 32 57  1  0
 32 58  1  0
M  END

