404772902
     RDKit          3D

 52 55  0  0  1  0  0  0  0  0999 V2000
   -1.4513    4.6278    1.1042 C   0  0  0  0  0  0  0  0  0  0  0  0
   -0.6140    4.0297    1.9984 C   0  0  0  0  0  0  0  0  0  0  0  0
   -0.3455    2.7061    1.8823 C   0  0  0  0  0  0  0  0  0  0  0  0
   -2.0491    3.8942    0.0583 C   0  0  0  0  0  0  0  0  0  0  0  0
   -2.8804    4.5591   -0.8060 O   0  0  0  0  0  0  0  0  0  0  0  0
   -1.7492    2.5423   -0.0213 C   0  0  0  0  0  0  0  0  0  0  0  0
   -0.9077    1.9189    0.8565 C   0  0  0  0  0  0  0  0  0  0  0  0
   -0.4978    0.5182    0.7186 C   0  0  0  0  0  0  0  0  0  0  0  0
   -2.5143    1.7002   -0.9673 C   0  0  0  0  0  0  0  0  0  0  0  0
   -3.2910    2.2086   -1.7952 O   0  0  0  0  0  0  0  0  0  0  0  0
   -2.3406    0.2485   -0.9127 C   0  0  0  0  0  0  0  0  0  0  0  0
   -1.4830   -0.3153   -0.0164 C   0  0  0  0  0  0  0  0  0  0  0  0
   -1.4127   -1.7132    0.1390 C   0  0  0  0  0  0  0  0  0  0  0  0
   -2.1989   -2.5541   -0.6076 C   0  0  0  0  0  0  0  0  0  0  0  0
   -3.0600   -2.0083   -1.5138 C   0  0  0  0  0  0  0  0  0  0  0  0
   -3.1361   -0.6076   -1.6718 C   0  0  0  0  0  0  0  0  0  0  0  0
   -4.0090   -0.1255   -2.5874 O   0  0  0  0  0  0  0  0  0  0  0  0
   -2.0884   -4.0368   -0.4060 C   0  0  0  0  0  0  0  0  0  0  0  0
   -1.1230   -4.5653   -1.2589 O   0  0  0  0  0  0  0  0  0  0  0  0
    0.8200    0.4281   -0.0851 C   0  0  2  0  0  0  0  0  0  0  0  0
    1.1103   -0.9407   -0.1832 O   0  0  0  0  0  0  0  0  0  0  0  0
    2.4439   -1.1550   -0.4422 C   0  0  1  0  0  0  0  0  0  0  0  0
    3.2592   -0.7730    0.7525 C   0  0  2  0  0  0  0  0  0  0  0  0
    2.7138    0.4347    1.4993 C   0  0  1  0  0  0  0  0  0  0  0  0
    1.9278    1.2193    0.4481 C   0  0  1  0  0  0  0  0  0  0  0  0
    2.7145   -2.6327   -0.6937 C   0  0  0  0  0  0  0  0  0  0  0  0
    2.0029   -3.1205   -1.7716 O   0  0  0  0  0  0  0  0  0  0  0  0
    4.5706   -0.5192    0.3467 O   0  0  0  0  0  0  0  0  0  0  0  0
    1.9203    0.0630    2.5630 O   0  0  0  0  0  0  0  0  0  0  0  0
    2.8940    1.5054   -0.5828 O   0  0  0  0  0  0  0  0  0  0  0  0
   -1.7015    5.6962    1.1492 H   0  0  0  0  0  0  0  0  0  0  0  0
   -0.1678    4.6494    2.8090 H   0  0  0  0  0  0  0  0  0  0  0  0
    0.2919    2.2219    2.6032 H   0  0  0  0  0  0  0  0  0  0  0  0
   -3.3795    4.2894   -1.5722 H   0  0  0  0  0  0  0  0  0  0  0  0
   -0.3626    0.0930    1.7307 H   0  0  0  0  0  0  0  0  0  0  0  0
   -0.7254   -2.1458    0.8617 H   0  0  0  0  0  0  0  0  0  0  0  0
   -3.6928   -2.6418   -2.1200 H   0  0  0  0  0  0  0  0  0  0  0  0
   -4.2952    0.7166   -2.9317 H   0  0  0  0  0  0  0  0  0  0  0  0
   -1.8095   -4.2837    0.6311 H   0  0  0  0  0  0  0  0  0  0  0  0
   -3.0625   -4.5267   -0.6939 H   0  0  0  0  0  0  0  0  0  0  0  0
   -0.8367   -5.4425   -0.8932 H   0  0  0  0  0  0  0  0  0  0  0  0
    0.5430    0.7965   -1.1121 H   0  0  0  0  0  0  0  0  0  0  0  0
    2.7633   -0.6552   -1.3945 H   0  0  0  0  0  0  0  0  0  0  0  0
    3.2661   -1.6310    1.4581 H   0  0  0  0  0  0  0  0  0  0  0  0
    3.5393    1.0566    1.8692 H   0  0  0  0  0  0  0  0  0  0  0  0
    1.6879    2.2129    0.8214 H   0  0  0  0  0  0  0  0  0  0  0  0
    3.7997   -2.7048   -0.9615 H   0  0  0  0  0  0  0  0  0  0  0  0
    2.5902   -3.2414    0.2218 H   0  0  0  0  0  0  0  0  0  0  0  0
    1.4942   -2.3580   -2.1613 H   0  0  0  0  0  0  0  0  0  0  0  0
    5.2415   -0.8903    0.9941 H   0  0  0  0  0  0  0  0  0  0  0  0
    2.0155   -0.8750    2.8220 H   0  0  0  0  0  0  0  0  0  0  0  0
    3.5757    2.1270   -0.1749 H   0  0  0  0  0  0  0  0  0  0  0  0
  3  7  2  0
 14 15  2  0
  1  2  2  0
 15 16  1  0
 11 16  2  0
  4  6  2  0
 16 17  1  0
  6  9  1  0
 14 18  1  0
  7  8  1  0
 18 19  1  0
  8 12  1  0
 20  8  1  0
 20 21  1  0
  9 11  1  0
  1  4  1  0
  9 10  2  0
  4  5  1  0
 20 25  1  0
 21 22  1  0
 22 23  1  0
 23 24  1  0
 24 25  1  0
 11 12  1  0
 22 26  1  0
  6  7  1  0
 26 27  1  0
 12 13  2  0
 23 28  1  0
  2  3  1  0
 24 29  1  0
 13 14  1  0
 25 30  1  0
  1 31  1  0
  2 32  1  0
  3 33  1  0
  5 34  1  0
  8 35  1  0
 13 36  1  0
 15 37  1  0
 17 38  1  0
 18 39  1  0
 18 40  1  0
 19 41  1  0
 20 42  1  6
 22 43  1  6
 23 44  1  1
 24 45  1  1
 25 46  1  1
 26 47  1  0
 26 48  1  0
 27 49  1  0
 28 50  1  0
 29 51  1  0
 30 52  1  0
M  END

