404770639
     RDKit          3D

 96 98  0  0  1  0  0  0  0  0999 V2000
   -0.0092    3.1106    3.3533 C   0  0  0  0  0  0  0  0  0  0  0  0
   -6.9198   -2.0372   -0.7959 C   0  0  0  0  0  0  0  0  0  0  0  0
   -5.5620    0.2539    3.0036 C   0  0  0  0  0  0  0  0  0  0  0  0
    4.5178    1.4557   -1.2245 C   0  0  0  0  0  0  0  0  0  0  0  0
    7.9446   -4.2885    1.4593 C   0  0  0  0  0  0  0  0  0  0  0  0
   -2.7779    4.4340    1.2728 C   0  0  0  0  0  0  0  0  0  0  0  0
    1.8319    2.7304   -1.2300 C   0  0  0  0  0  0  0  0  0  0  0  0
   -3.7567   -3.1526   -0.7908 C   0  0  0  0  0  0  0  0  0  0  0  0
    0.3811    2.2412    2.2072 C   0  0  0  0  0  0  0  0  0  0  0  0
   -6.0248   -2.1725   -1.9887 C   0  0  0  0  0  0  0  0  0  0  0  0
   -4.0629    0.1716    2.7667 C   0  0  0  0  0  0  0  0  0  0  0  0
    3.4992   -0.8529   -1.5899 C   0  0  0  0  0  0  0  0  0  0  0  0
    5.8594   -4.0977    0.1310 C   0  0  0  0  0  0  0  0  0  0  0  0
    4.5103   -1.6576   -2.3130 C   0  0  0  0  0  0  0  0  0  0  0  0
    5.0711   -3.4746   -0.8057 C   0  0  0  0  0  0  0  0  0  0  0  0
   -4.2210    0.8476   -0.9808 C   0  0  0  0  0  0  0  0  0  0  0  0
   -5.2707    0.1572   -1.8732 C   0  0  0  0  0  0  0  0  0  0  0  0
   -4.0644    2.3511    1.6820 C   0  0  0  0  0  0  0  0  0  0  0  0
    3.8124    0.2583   -0.6956 C   0  0  2  0  0  0  0  0  0  0  0  0
    7.0879   -3.6029    0.4286 C   0  0  0  0  0  0  0  0  0  0  0  0
   -2.6972    3.0360    1.8349 C   0  0  1  0  0  0  0  0  0  0  0  0
    1.5461    1.4137   -0.6004 C   0  0  1  0  0  0  0  0  0  0  0  0
   -3.8211   -1.6334   -0.8945 C   0  0  1  0  0  0  0  0  0  0  0  0
    5.5130   -2.3182   -1.4740 C   0  0  0  0  0  0  0  0  0  0  0  0
   -0.4031    2.3328    0.9619 C   0  0  1  0  0  0  0  0  0  0  0  0
   -4.3702    0.2318    0.3705 C   0  0  2  0  0  0  0  0  0  0  0  0
    6.7491   -1.8429   -1.1652 C   0  0  0  0  0  0  0  0  0  0  0  0
    2.5805    0.6795    0.1211 C   0  0  1  0  0  0  0  0  0  0  0  0
    7.5687   -2.4508   -0.2185 C   0  0  0  0  0  0  0  0  0  0  0  0
    0.1951    1.3582   -0.0269 C   0  0  0  0  0  0  0  0  0  0  0  0
   -1.8607    2.1218    0.9983 C   0  0  1  0  0  0  0  0  0  0  0  0
    7.3050   -0.7316   -1.8972 C   0  0  0  0  0  0  0  0  0  0  0  0
   -4.8232   -1.2866   -1.9429 C   0  0  1  0  0  0  0  0  0  0  0  0
   -3.6634    0.9290    1.4869 C   0  0  2  0  0  0  0  0  0  0  0  0
    2.0250   -0.4910    0.6419 O   0  0  0  0  0  0  0  0  0  0  0  0
    8.8098   -2.0692    0.1782 O   0  0  0  0  0  0  0  0  0  0  0  0
   -0.5922    0.4405   -0.3423 O   0  0  0  0  0  0  0  0  0  0  0  0
    6.6527   -0.1205   -2.7744 O   0  0  0  0  0  0  0  0  0  0  0  0
    8.5978   -0.2192   -1.7228 O   0  0  0  0  0  0  0  0  0  0  0  0
   -4.1697   -1.4197   -3.1899 O   0  0  0  0  0  0  0  0  0  0  0  0
   -4.0661   -1.1292    0.3587 O   0  0  0  0  0  0  0  0  0  0  0  0
   -2.2742    0.8542    1.4261 O   0  0  0  0  0  0  0  0  0  0  0  0
   -0.3932    4.0930    3.1029 H   0  0  0  0  0  0  0  0  0  0  0  0
   -0.5835    2.5475    4.1327 H   0  0  0  0  0  0  0  0  0  0  0  0
    0.9655    3.3365    3.9104 H   0  0  0  0  0  0  0  0  0  0  0  0
   -7.5411   -2.9646   -0.7435 H   0  0  0  0  0  0  0  0  0  0  0  0
   -6.3750   -1.9663    0.1666 H   0  0  0  0  0  0  0  0  0  0  0  0
   -7.6426   -1.1789   -0.9104 H   0  0  0  0  0  0  0  0  0  0  0  0
   -6.0633   -0.6941    2.6464 H   0  0  0  0  0  0  0  0  0  0  0  0
   -5.8267    0.3267    4.0751 H   0  0  0  0  0  0  0  0  0  0  0  0
   -6.0533    1.0623    2.4308 H   0  0  0  0  0  0  0  0  0  0  0  0
    4.1870    2.4012   -0.6822 H   0  0  0  0  0  0  0  0  0  0  0  0
    5.6256    1.4559   -0.9373 H   0  0  0  0  0  0  0  0  0  0  0  0
    4.5186    1.5756   -2.3192 H   0  0  0  0  0  0  0  0  0  0  0  0
    8.8878   -4.5722    0.9811 H   0  0  0  0  0  0  0  0  0  0  0  0
    8.2021   -3.4913    2.2116 H   0  0  0  0  0  0  0  0  0  0  0  0
    7.3794   -5.1052    1.9097 H   0  0  0  0  0  0  0  0  0  0  0  0
   -3.8001    4.8509    1.2510 H   0  0  0  0  0  0  0  0  0  0  0  0
   -2.4430    4.3404    0.1969 H   0  0  0  0  0  0  0  0  0  0  0  0
   -2.0478    5.1233    1.7397 H   0  0  0  0  0  0  0  0  0  0  0  0
    2.1401    3.5388   -0.5413 H   0  0  0  0  0  0  0  0  0  0  0  0
    0.8260    3.1271   -1.6122 H   0  0  0  0  0  0  0  0  0  0  0  0
    2.4103    2.6841   -2.1775 H   0  0  0  0  0  0  0  0  0  0  0  0
   -4.6329   -3.5591   -0.2596 H   0  0  0  0  0  0  0  0  0  0  0  0
   -2.8608   -3.3787   -0.1704 H   0  0  0  0  0  0  0  0  0  0  0  0
   -3.6162   -3.5814   -1.8006 H   0  0  0  0  0  0  0  0  0  0  0  0
    1.4517    2.5103    1.9129 H   0  0  0  0  0  0  0  0  0  0  0  0
    0.4762    1.1685    2.5227 H   0  0  0  0  0  0  0  0  0  0  0  0
   -6.6211   -1.8413   -2.8899 H   0  0  0  0  0  0  0  0  0  0  0  0
   -5.7710   -3.2232   -2.1614 H   0  0  0  0  0  0  0  0  0  0  0  0
   -3.7461   -0.8968    2.6339 H   0  0  0  0  0  0  0  0  0  0  0  0
   -3.5695    0.6496    3.6137 H   0  0  0  0  0  0  0  0  0  0  0  0
    2.8414   -1.6141   -1.0564 H   0  0  0  0  0  0  0  0  0  0  0  0
    2.8502   -0.4047   -2.4335 H   0  0  0  0  0  0  0  0  0  0  0  0
    5.4833   -4.9982    0.6344 H   0  0  0  0  0  0  0  0  0  0  0  0
    3.8616   -2.5083   -2.8140 H   0  0  0  0  0  0  0  0  0  0  0  0
    4.9050   -1.1659   -3.2028 H   0  0  0  0  0  0  0  0  0  0  0  0
    4.1087   -3.8817   -1.0240 H   0  0  0  0  0  0  0  0  0  0  0  0
   -4.4904    1.9000   -0.9755 H   0  0  0  0  0  0  0  0  0  0  0  0
   -3.2603    0.6128   -1.4936 H   0  0  0  0  0  0  0  0  0  0  0  0
   -6.2767    0.2799   -1.4778 H   0  0  0  0  0  0  0  0  0  0  0  0
   -5.2092    0.6721   -2.8532 H   0  0  0  0  0  0  0  0  0  0  0  0
   -4.6800    2.5388    2.6012 H   0  0  0  0  0  0  0  0  0  0  0  0
   -4.6177    2.7977    0.8361 H   0  0  0  0  0  0  0  0  0  0  0  0
    4.5099   -0.1765    0.0988 H   0  0  0  0  0  0  0  0  0  0  0  0
   -2.4818    3.0887    2.8920 H   0  0  0  0  0  0  0  0  0  0  0  0
    1.4082    0.7402   -1.5765 H   0  0  0  0  0  0  0  0  0  0  0  0
   -2.7910   -1.3453   -1.2651 H   0  0  0  0  0  0  0  0  0  0  0  0
   -0.2557    3.3819    0.5685 H   0  0  0  0  0  0  0  0  0  0  0  0
   -5.4703    0.2793    0.6257 H   0  0  0  0  0  0  0  0  0  0  0  0
    3.0502    1.1970    1.0025 H   0  0  0  0  0  0  0  0  0  0  0  0
   -2.2942    2.2002   -0.0421 H   0  0  0  0  0  0  0  0  0  0  0  0
    1.3252   -0.8799    0.0876 H   0  0  0  0  0  0  0  0  0  0  0  0
    9.3355   -1.3193   -0.1111 H   0  0  0  0  0  0  0  0  0  0  0  0
    8.6471    0.7837   -1.5252 H   0  0  0  0  0  0  0  0  0  0  0  0
   -4.6305   -0.8774   -3.8743 H   0  0  0  0  0  0  0  0  0  0  0  0
  1  9  1  0
  2 10  1  0
  3 11  1  0
 12 14  1  0
 13 15  2  0
 16 17  1  0
 19  4  1  0
 12 19  1  0
  5 20  1  0
 13 20  1  0
 21  6  1  0
 18 21  1  0
 22  7  1  0
 23  8  1  0
 14 24  1  0
 15 24  1  0
  9 25  1  0
 16 26  1  0
 24 27  2  0
 19 28  1  0
 22 28  1  0
 20 29  2  0
 27 29  1  0
 22 30  1  0
 25 30  1  0
 21 31  1  0
 31 25  1  0
 27 32  1  0
 33 10  1  0
 17 33  1  0
 23 33  1  0
 34 11  1  1
 18 34  1  0
 26 34  1  0
 28 35  1  0
 29 36  1  0
 30 37  2  0
 32 38  2  0
 32 39  1  0
 33 40  1  6
 23 41  1  0
 26 41  1  0
 31 42  1  0
 34 42  1  0
  1 43  1  0
  1 44  1  0
  1 45  1  0
  2 46  1  0
  2 47  1  0
  2 48  1  0
  3 49  1  0
  3 50  1  0
  3 51  1  0
  4 52  1  0
  4 53  1  0
  4 54  1  0
  5 55  1  0
  5 56  1  0
  5 57  1  0
  6 58  1  0
  6 59  1  0
  6 60  1  0
  7 61  1  0
  7 62  1  0
  7 63  1  0
  8 64  1  0
  8 65  1  0
  8 66  1  0
  9 67  1  0
  9 68  1  0
 10 69  1  0
 10 70  1  0
 11 71  1  0
 11 72  1  0
 12 73  1  0
 12 74  1  0
 13 75  1  0
 14 76  1  0
 14 77  1  0
 15 78  1  0
 16 79  1  0
 16 80  1  0
 17 81  1  0
 17 82  1  0
 18 83  1  0
 18 84  1  0
 19 85  1  1
 21 86  1  1
 22 87  1  6
 23 88  1  6
 25 89  1  6
 26 90  1  1
 28 91  1  1
 31 92  1  6
 35 93  1  0
 36 94  1  0
 39 95  1  0
 40 96  1  0
M  END

