404771649
     RDKit          3D

 29 30  0  0  0  0  0  0  0  0999 V2000
   -0.0159    0.2311    0.6717 C   0  0  0  0  0  0  0  0  0  0  0  0
   -0.1251    0.9741    1.7343 N   0  0  0  0  0  0  0  0  0  0  0  0
    0.9513   -0.8084    0.5848 N   0  0  0  0  0  0  0  0  0  0  0  0
   -0.8518    0.4172   -0.4519 N   0  0  0  0  0  0  0  0  0  0  0  0
   -4.4076    0.1420   -1.2442 C   0  0  0  0  0  0  0  0  0  0  0  0
   -4.9266   -0.2541   -0.0291 C   0  0  0  0  0  0  0  0  0  0  0  0
   -4.1057   -0.4329    1.0599 C   0  0  0  0  0  0  0  0  0  0  0  0
   -2.7540   -0.1977    0.8728 C   0  0  0  0  0  0  0  0  0  0  0  0
   -2.2285    0.1956   -0.3286 C   0  0  0  0  0  0  0  0  0  0  0  0
   -3.0565    0.3713   -1.4094 C   0  0  0  0  0  0  0  0  0  0  0  0
    2.3126   -0.4519    0.4617 C   0  0  0  0  0  0  0  0  0  0  0  0
    2.6495    0.8780    0.4307 C   0  0  0  0  0  0  0  0  0  0  0  0
    3.9837    1.1977    0.3102 C   0  0  0  0  0  0  0  0  0  0  0  0
    4.9567    0.2206    0.2228 C   0  0  0  0  0  0  0  0  0  0  0  0
    4.6323   -1.1306    0.2527 C   0  0  0  0  0  0  0  0  0  0  0  0
    3.2940   -1.4377    0.3736 C   0  0  0  0  0  0  0  0  0  0  0  0
   -0.8556    1.7186    1.7316 H   0  0  0  0  0  0  0  0  0  0  0  0
    0.6428   -1.8292    0.6130 H   0  0  0  0  0  0  0  0  0  0  0  0
   -0.4353    0.7145   -1.3499 H   0  0  0  0  0  0  0  0  0  0  0  0
   -5.0345    0.2937   -2.1322 H   0  0  0  0  0  0  0  0  0  0  0  0
   -5.9749   -0.4255    0.0752 H   0  0  0  0  0  0  0  0  0  0  0  0
   -4.4571   -0.7419    2.0351 H   0  0  0  0  0  0  0  0  0  0  0  0
   -2.1069   -0.3436    1.7499 H   0  0  0  0  0  0  0  0  0  0  0  0
   -2.6653    0.6869   -2.3890 H   0  0  0  0  0  0  0  0  0  0  0  0
    1.8905    1.6720    0.4989 H   0  0  0  0  0  0  0  0  0  0  0  0
    4.2519    2.2588    0.2855 H   0  0  0  0  0  0  0  0  0  0  0  0
    6.0101    0.4738    0.1277 H   0  0  0  0  0  0  0  0  0  0  0  0
    5.3973   -1.8915    0.1840 H   0  0  0  0  0  0  0  0  0  0  0  0
    3.0285   -2.5008    0.3980 H   0  0  0  0  0  0  0  0  0  0  0  0
  1  2  2  3
  1  3  1  0
  1  4  1  0
  4  9  1  0
  5 10  2  0
  5  6  1  0
  6  7  2  0
  7  8  1  0
  8  9  2  0
  9 10  1  0
  3 11  1  0
 11 12  2  0
 12 13  1  0
 13 14  2  0
 14 15  1  0
 15 16  2  0
 11 16  1  0
  2 17  1  0
  3 18  1  0
  4 19  1  0
  5 20  1  0
  6 21  1  0
  7 22  1  0
  8 23  1  0
 10 24  1  0
 12 25  1  0
 13 26  1  0
 14 27  1  0
 15 28  1  0
 16 29  1  0
M  END

