404770734
     RDKit          3D

 41 43  0  0  1  0  0  0  0  0999 V2000
   -0.2227   -0.1110   -2.1088 O   0  0  0  0  0  0  0  0  0  0  0  0
    2.1165    0.4342   -0.7147 N   0  0  0  0  0  0  0  0  0  0  0  0
    1.0706   -0.4118   -0.2548 C   0  0  0  0  0  0  0  0  0  0  0  0
   -0.3108   -0.0410   -0.6702 C   0  0  0  0  0  0  0  0  0  0  0  0
    1.2768   -0.8381    1.1663 C   0  0  0  0  0  0  0  0  0  0  0  0
    2.7124   -1.4240    1.1797 C   0  0  0  0  0  0  0  0  0  0  0  0
    3.6701   -0.2952    1.0859 C   0  0  0  0  0  0  0  0  0  0  0  0
    3.1607    0.7449    0.1583 C   0  0  0  0  0  0  0  0  0  0  0  0
   -0.7726    1.3214   -0.4100 C   0  0  0  0  0  0  0  0  0  0  0  0
   -1.3016   -1.1153   -0.4239 C   0  0  0  0  0  0  0  0  0  0  0  0
   -0.8885    1.8951    0.8559 C   0  0  0  0  0  0  0  0  0  0  0  0
   -1.2020   -2.3399   -1.0575 C   0  0  0  0  0  0  0  0  0  0  0  0
   -1.1564    2.2018   -1.4361 C   0  0  0  0  0  0  0  0  0  0  0  0
   -2.3570   -0.9470    0.4281 C   0  0  0  0  0  0  0  0  0  0  0  0
   -1.3301    3.1804    1.0734 C   0  0  0  0  0  0  0  0  0  0  0  0
   -2.1101   -3.3536   -0.8542 C   0  0  0  0  0  0  0  0  0  0  0  0
   -1.5937    3.4688   -1.2510 C   0  0  0  0  0  0  0  0  0  0  0  0
   -3.2974   -1.9553    0.6575 C   0  0  0  0  0  0  0  0  0  0  0  0
   -1.6830    3.9692    0.0255 C   0  0  0  0  0  0  0  0  0  0  0  0
   -3.1597   -3.1583    0.0062 C   0  0  0  0  0  0  0  0  0  0  0  0
    0.4535    0.5473   -2.3470 H   0  0  0  0  0  0  0  0  0  0  0  0
    2.3602    0.3275   -1.7185 H   0  0  0  0  0  0  0  0  0  0  0  0
    1.2719   -1.3859   -0.8267 H   0  0  0  0  0  0  0  0  0  0  0  0
    0.6742   -1.7301    1.4385 H   0  0  0  0  0  0  0  0  0  0  0  0
    1.2829   -0.0545    1.9154 H   0  0  0  0  0  0  0  0  0  0  0  0
    2.8543   -2.0722    2.0425 H   0  0  0  0  0  0  0  0  0  0  0  0
    2.7451   -2.0769    0.2665 H   0  0  0  0  0  0  0  0  0  0  0  0
    3.8432    0.0945    2.1145 H   0  0  0  0  0  0  0  0  0  0  0  0
    4.6583   -0.7386    0.7576 H   0  0  0  0  0  0  0  0  0  0  0  0
    3.0101    1.6922    0.7598 H   0  0  0  0  0  0  0  0  0  0  0  0
    4.0471    1.0268   -0.4951 H   0  0  0  0  0  0  0  0  0  0  0  0
   -0.6198    1.3011    1.6976 H   0  0  0  0  0  0  0  0  0  0  0  0
   -0.3803   -2.5253   -1.7451 H   0  0  0  0  0  0  0  0  0  0  0  0
   -1.1007    1.8374   -2.4707 H   0  0  0  0  0  0  0  0  0  0  0  0
   -2.4412    0.0027    0.9194 H   0  0  0  0  0  0  0  0  0  0  0  0
   -1.3960    3.5657    2.0992 H   0  0  0  0  0  0  0  0  0  0  0  0
   -2.0036   -4.3014   -1.3658 H   0  0  0  0  0  0  0  0  0  0  0  0
   -1.8698    4.0744   -2.1293 H   0  0  0  0  0  0  0  0  0  0  0  0
   -4.1121   -1.8088    1.3221 H   0  0  0  0  0  0  0  0  0  0  0  0
   -2.0350    4.9881    0.1662 H   0  0  0  0  0  0  0  0  0  0  0  0
   -3.8637   -3.9894    0.1431 H   0  0  0  0  0  0  0  0  0  0  0  0
  1  4  1  0
  2  3  1  0
  2  8  1  0
  3  4  1  0
  3  5  1  0
  4  9  1  0
  4 10  1  0
  5  6  1  0
  6  7  1  0
  7  8  1  0
  9 11  2  0
  9 13  1  0
 10 12  2  0
 10 14  1  0
 11 15  1  0
 12 16  1  0
 13 17  2  0
 14 18  2  0
 15 19  2  0
 16 20  2  0
 17 19  1  0
 18 20  1  0
  1 21  1  0
  2 22  1  0
  3 23  1  0
  5 24  1  0
  5 25  1  0
  6 26  1  0
  6 27  1  0
  7 28  1  0
  7 29  1  0
  8 30  1  0
  8 31  1  0
 11 32  1  0
 12 33  1  0
 13 34  1  0
 14 35  1  0
 15 36  1  0
 16 37  1  0
 17 38  1  0
 18 39  1  0
 19 40  1  0
 20 41  1  0
M  END

