404772090
     RDKit          3D

 77 80  0  0  1  0  0  0  0  0999 V2000
   -1.4971    1.5157   -0.1092 C   0  0  0  0  0  0  0  0  0  0  0  0
   -1.6808    0.0598   -0.4550 C   0  0  2  0  0  0  0  0  0  0  0  0
   -2.3497   -0.1098   -1.7578 C   0  0  0  0  0  0  0  0  0  0  0  0
   -3.6935    0.6091   -1.7045 C   0  0  0  0  0  0  0  0  0  0  0  0
   -4.5378    0.1645   -0.5782 C   0  0  1  0  0  0  0  0  0  0  0  0
   -3.8883    0.0949    0.7704 C   0  0  2  0  0  0  0  0  0  0  0  0
   -2.5610   -0.5728    0.6249 C   0  0  2  0  0  0  0  0  0  0  0  0
   -1.6492   -0.4720    1.8070 C   0  0  0  0  0  0  0  0  0  0  0  0
   -0.2144   -0.4728    1.2492 C   0  0  0  0  0  0  0  0  0  0  0  0
   -0.4469   -0.7565   -0.2163 C   0  0  2  0  0  0  0  0  0  0  0  0
    0.6043   -0.5528   -1.0506 O   0  0  0  0  0  0  0  0  0  0  0  0
    1.2632   -1.5085   -1.7951 C   0  0  0  0  0  0  0  0  0  0  0  0
    0.8269   -2.6758   -1.6618 O   0  0  0  0  0  0  0  0  0  0  0  0
    2.3829   -1.0945   -2.6507 C   0  0  0  0  0  0  0  0  0  0  0  0
    3.6389   -0.7398   -1.8795 C   0  0  0  0  0  0  0  0  0  0  0  0
    4.0596   -1.9420   -1.0860 C   0  0  0  0  0  0  0  0  0  0  0  0
    5.3056   -1.6694   -0.2968 C   0  0  0  0  0  0  0  0  0  0  0  0
    5.0965   -0.5479    0.6561 C   0  0  0  0  0  0  0  0  0  0  0  0
    6.3141   -0.2881    1.4726 C   0  0  0  0  0  0  0  0  0  0  0  0
    7.4756    0.0633    0.6004 C   0  0  0  0  0  0  0  0  0  0  0  0
    8.6548    0.3316    1.5427 C   0  0  0  0  0  0  0  0  0  0  0  0
    9.8487    0.6783    0.7299 C   0  0  0  0  0  0  0  0  0  0  0  0
   10.4518    1.8563    0.8525 C   0  0  0  0  0  0  0  0  0  0  0  0
   -4.7760   -0.8095    1.6109 C   0  0  0  0  0  0  0  0  0  0  0  0
   -6.1777   -0.2336    1.7417 C   0  0  0  0  0  0  0  0  0  0  0  0
   -6.6905    0.2434    0.4361 C   0  0  0  0  0  0  0  0  0  0  0  0
   -7.9272   -0.0323    0.1228 C   0  0  0  0  0  0  0  0  0  0  0  0
   -8.4796    0.4090   -1.1509 C   0  0  0  0  0  0  0  0  0  0  0  0
   -9.6610    0.1675   -1.4917 O   0  0  0  0  0  0  0  0  0  0  0  0
   -7.6021    1.1601   -2.0457 C   0  0  0  0  0  0  0  0  0  0  0  0
   -6.3725    1.4262   -1.7111 C   0  0  0  0  0  0  0  0  0  0  0  0
   -5.7826    1.0121   -0.4452 C   0  0  2  0  0  0  0  0  0  0  0  0
   -5.3450    2.2540    0.3591 C   0  0  0  0  0  0  0  0  0  0  0  0
   -1.8079    2.1124   -0.9894 H   0  0  0  0  0  0  0  0  0  0  0  0
   -0.3989    1.7386   -0.0059 H   0  0  0  0  0  0  0  0  0  0  0  0
   -2.0779    1.8493    0.7460 H   0  0  0  0  0  0  0  0  0  0  0  0
   -1.7837    0.3655   -2.6054 H   0  0  0  0  0  0  0  0  0  0  0  0
   -2.5478   -1.1729   -1.9362 H   0  0  0  0  0  0  0  0  0  0  0  0
   -4.2150    0.2736   -2.6531 H   0  0  0  0  0  0  0  0  0  0  0  0
   -3.6020    1.7042   -1.8418 H   0  0  0  0  0  0  0  0  0  0  0  0
   -4.9114   -0.8709   -0.8360 H   0  0  0  0  0  0  0  0  0  0  0  0
   -3.8434    1.0463    1.3230 H   0  0  0  0  0  0  0  0  0  0  0  0
   -2.7474   -1.6547    0.3914 H   0  0  0  0  0  0  0  0  0  0  0  0
   -1.7754   -1.3282    2.5204 H   0  0  0  0  0  0  0  0  0  0  0  0
   -1.8277    0.4382    2.4052 H   0  0  0  0  0  0  0  0  0  0  0  0
    0.2380    0.4856    1.4709 H   0  0  0  0  0  0  0  0  0  0  0  0
    0.3807   -1.2774    1.7287 H   0  0  0  0  0  0  0  0  0  0  0  0
   -0.7443   -1.8259   -0.2435 H   0  0  0  0  0  0  0  0  0  0  0  0
    2.1041   -0.2528   -3.3401 H   0  0  0  0  0  0  0  0  0  0  0  0
    2.6346   -1.9524   -3.3362 H   0  0  0  0  0  0  0  0  0  0  0  0
    4.4317   -0.5645   -2.6523 H   0  0  0  0  0  0  0  0  0  0  0  0
    3.5216    0.1858   -1.3106 H   0  0  0  0  0  0  0  0  0  0  0  0
    4.2291   -2.7645   -1.8351 H   0  0  0  0  0  0  0  0  0  0  0  0
    3.2319   -2.2524   -0.3898 H   0  0  0  0  0  0  0  0  0  0  0  0
    6.1046   -1.4037   -1.0230 H   0  0  0  0  0  0  0  0  0  0  0  0
    5.6174   -2.6123    0.1944 H   0  0  0  0  0  0  0  0  0  0  0  0
    4.9106    0.3906    0.0663 H   0  0  0  0  0  0  0  0  0  0  0  0
    4.2308   -0.7140    1.3371 H   0  0  0  0  0  0  0  0  0  0  0  0
    6.5609   -1.1400    2.1524 H   0  0  0  0  0  0  0  0  0  0  0  0
    6.0914    0.5999    2.1237 H   0  0  0  0  0  0  0  0  0  0  0  0
    7.7486   -0.7388   -0.1156 H   0  0  0  0  0  0  0  0  0  0  0  0
    7.2183    0.9907    0.0591 H   0  0  0  0  0  0  0  0  0  0  0  0
    8.8354   -0.5790    2.1405 H   0  0  0  0  0  0  0  0  0  0  0  0
    8.4230    1.1952    2.1989 H   0  0  0  0  0  0  0  0  0  0  0  0
   10.2513   -0.0409    0.0127 H   0  0  0  0  0  0  0  0  0  0  0  0
   11.3226    2.1021    0.2563 H   0  0  0  0  0  0  0  0  0  0  0  0
   10.1164    2.6231    1.5377 H   0  0  0  0  0  0  0  0  0  0  0  0
   -4.3475   -1.0455    2.5924 H   0  0  0  0  0  0  0  0  0  0  0  0
   -4.9076   -1.7842    1.0741 H   0  0  0  0  0  0  0  0  0  0  0  0
   -6.8683   -0.9879    2.1998 H   0  0  0  0  0  0  0  0  0  0  0  0
   -6.1417    0.5935    2.4656 H   0  0  0  0  0  0  0  0  0  0  0  0
   -8.5949   -0.5984    0.7905 H   0  0  0  0  0  0  0  0  0  0  0  0
   -8.0225    1.4933   -3.0188 H   0  0  0  0  0  0  0  0  0  0  0  0
   -5.7582    1.9827   -2.4072 H   0  0  0  0  0  0  0  0  0  0  0  0
   -5.5138    2.1567    1.4264 H   0  0  0  0  0  0  0  0  0  0  0  0
   -6.0180    3.0835   -0.0214 H   0  0  0  0  0  0  0  0  0  0  0  0
   -4.3374    2.5829    0.1134 H   0  0  0  0  0  0  0  0  0  0  0  0
  2  1  1  1
  2  3  1  0
  3  4  1  0
  5  4  1  0
  5  6  1  0
  6  7  1  0
  2  7  1  0
  7  8  1  0
  8  9  1  0
  9 10  1  0
  2 10  1  0
 10 11  1  0
 11 12  1  0
 12 13  2  0
 12 14  1  0
 14 15  1  0
 15 16  1  0
 16 17  1  0
 17 18  1  0
 18 19  1  0
 19 20  1  0
 20 21  1  0
 21 22  1  0
 22 23  2  3
  6 24  1  0
 24 25  1  0
 25 26  1  0
 26 27  2  0
 27 28  1  0
 28 29  2  0
 28 30  1  0
 30 31  2  0
 31 32  1  0
  5 32  1  0
 26 32  1  0
 32 33  1  1
  1 34  1  0
  1 35  1  0
  1 36  1  0
  3 37  1  0
  3 38  1  0
  4 39  1  0
  4 40  1  0
  5 41  1  6
  6 42  1  1
  7 43  1  6
  8 44  1  0
  8 45  1  0
  9 46  1  0
  9 47  1  0
 10 48  1  1
 14 49  1  0
 14 50  1  0
 15 51  1  0
 15 52  1  0
 16 53  1  0
 16 54  1  0
 17 55  1  0
 17 56  1  0
 18 57  1  0
 18 58  1  0
 19 59  1  0
 19 60  1  0
 20 61  1  0
 20 62  1  0
 21 63  1  0
 21 64  1  0
 22 65  1  0
 23 66  1  0
 23 67  1  0
 24 68  1  0
 24 69  1  0
 25 70  1  0
 25 71  1  0
 27 72  1  0
 30 73  1  0
 31 74  1  0
 33 75  1  0
 33 76  1  0
 33 77  1  0
M  END

