404771470
     RDKit          3D

 92 93  0  0  1  0  0  0  0  0999 V2000
  -10.4150    0.7481    1.6881 C   0  0  0  0  0  0  0  0  0  0  0  0
   -8.1140    1.4551    2.2560 C   0  0  0  0  0  0  0  0  0  0  0  0
   -5.5068   -2.2261    0.2910 C   0  0  0  0  0  0  0  0  0  0  0  0
   -2.3593    1.5223   -1.0363 C   0  0  0  0  0  0  0  0  0  0  0  0
    6.8167    2.0506    1.4486 C   0  0  0  0  0  0  0  0  0  0  0  0
    4.2116    2.8657    0.5241 C   0  0  0  0  0  0  0  0  0  0  0  0
    5.6352   -2.7362    0.5375 C   0  0  0  0  0  0  0  0  0  0  0  0
    2.2734    1.0366   -2.7049 C   0  0  0  0  0  0  0  0  0  0  0  0
   -8.4542   -1.3138    0.5482 C   0  0  0  0  0  0  0  0  0  0  0  0
   -4.8732   -0.2183   -1.8074 C   0  0  0  0  0  0  0  0  0  0  0  0
   -0.3330   -0.3467   -2.5855 C   0  0  0  0  0  0  0  0  0  0  0  0
   -8.6704   -1.0196    1.9817 C   0  0  0  0  0  0  0  0  0  0  0  0
   -7.3733   -0.5950   -0.1672 C   0  0  0  0  0  0  0  0  0  0  0  0
   -5.0417    0.1482   -0.3932 C   0  0  0  0  0  0  0  0  0  0  0  0
   -4.0324    0.6256   -2.6792 C   0  0  0  0  0  0  0  0  0  0  0  0
   -1.8066   -0.4370   -2.5554 C   0  0  0  0  0  0  0  0  0  0  0  0
   10.6294    0.1922    0.9713 C   0  0  0  0  0  0  0  0  0  0  0  0
    9.8019   -1.0574    0.8550 C   0  0  0  0  0  0  0  0  0  0  0  0
    2.9898   -1.7706   -0.3934 C   0  0  0  0  0  0  0  0  0  0  0  0
    0.3651    0.1271   -1.3748 C   0  0  0  0  0  0  0  0  0  0  0  0
    2.5100   -1.1887   -1.6977 C   0  0  0  0  0  0  0  0  0  0  0  0
   -9.0987    0.3594    2.3476 C   0  0  0  0  0  0  0  0  0  0  0  0
   -6.0034   -0.8249    0.3330 C   0  0  2  0  0  0  0  0  0  0  0  0
   -2.5834    0.8258   -2.3319 C   0  0  2  0  0  0  0  0  0  0  0  0
    5.8400    1.0295    0.9759 C   0  0  0  0  0  0  0  0  0  0  0  0
    4.5780    1.4245    0.5260 C   0  0  0  0  0  0  0  0  0  0  0  0
    5.2556   -1.2746    0.5299 C   0  0  0  0  0  0  0  0  0  0  0  0
    4.0510   -0.8430    0.1056 C   0  0  0  0  0  0  0  0  0  0  0  0
   12.0265   -0.1048    1.3773 C   0  0  0  0  0  0  0  0  0  0  0  0
    8.4262   -0.6806    0.4473 C   0  0  0  0  0  0  0  0  0  0  0  0
    6.1572   -0.3161    0.9699 C   0  0  0  0  0  0  0  0  0  0  0  0
    3.6826    0.4877    0.0904 C   0  0  0  0  0  0  0  0  0  0  0  0
    1.8834    0.1291   -1.5402 C   0  0  1  0  0  0  0  0  0  0  0  0
   12.3326   -1.3061    1.5652 O   0  0  0  0  0  0  0  0  0  0  0  0
   12.9415    0.9234    1.5370 O   0  0  0  0  0  0  0  0  0  0  0  0
    8.2061   -0.3765   -0.7468 O   0  0  0  0  0  0  0  0  0  0  0  0
    7.4286   -0.6821    1.4260 O   0  0  0  0  0  0  0  0  0  0  0  0
    2.3836    0.8150   -0.3813 O   0  0  0  0  0  0  0  0  0  0  0  0
  -10.1851    1.3621    0.7896 H   0  0  0  0  0  0  0  0  0  0  0  0
  -11.0181   -0.1441    1.4340 H   0  0  0  0  0  0  0  0  0  0  0  0
  -11.0366    1.3850    2.3501 H   0  0  0  0  0  0  0  0  0  0  0  0
   -7.0833    1.1833    2.4705 H   0  0  0  0  0  0  0  0  0  0  0  0
   -8.3876    2.2062    3.0791 H   0  0  0  0  0  0  0  0  0  0  0  0
   -8.2502    2.0840    1.3320 H   0  0  0  0  0  0  0  0  0  0  0  0
   -5.8125   -2.8097    1.1915 H   0  0  0  0  0  0  0  0  0  0  0  0
   -5.7480   -2.7830   -0.6353 H   0  0  0  0  0  0  0  0  0  0  0  0
   -4.3842   -2.1979    0.3414 H   0  0  0  0  0  0  0  0  0  0  0  0
   -3.3621    2.0160   -0.7843 H   0  0  0  0  0  0  0  0  0  0  0  0
   -1.7166    2.4430   -1.1583 H   0  0  0  0  0  0  0  0  0  0  0  0
   -1.9581    0.9159   -0.2342 H   0  0  0  0  0  0  0  0  0  0  0  0
    7.7447    1.5441    1.7278 H   0  0  0  0  0  0  0  0  0  0  0  0
    6.9875    2.8300    0.6648 H   0  0  0  0  0  0  0  0  0  0  0  0
    6.3655    2.5666    2.3100 H   0  0  0  0  0  0  0  0  0  0  0  0
    5.0628    3.4664    0.1667 H   0  0  0  0  0  0  0  0  0  0  0  0
    3.9073    3.1667    1.5433 H   0  0  0  0  0  0  0  0  0  0  0  0
    3.3734    3.0184   -0.1825 H   0  0  0  0  0  0  0  0  0  0  0  0
    5.1201   -3.2775    1.3352 H   0  0  0  0  0  0  0  0  0  0  0  0
    6.7263   -2.7650    0.7285 H   0  0  0  0  0  0  0  0  0  0  0  0
    5.4994   -3.1777   -0.4712 H   0  0  0  0  0  0  0  0  0  0  0  0
    3.3068    1.4575   -2.5580 H   0  0  0  0  0  0  0  0  0  0  0  0
    2.2558    0.4962   -3.6694 H   0  0  0  0  0  0  0  0  0  0  0  0
    1.6106    1.9120   -2.7861 H   0  0  0  0  0  0  0  0  0  0  0  0
   -9.4171   -0.9990    0.0261 H   0  0  0  0  0  0  0  0  0  0  0  0
   -8.4491   -2.4273    0.3343 H   0  0  0  0  0  0  0  0  0  0  0  0
   -5.8755   -0.3287   -2.3173 H   0  0  0  0  0  0  0  0  0  0  0  0
   -4.4151   -1.2658   -1.8568 H   0  0  0  0  0  0  0  0  0  0  0  0
   -0.0706    0.2631   -3.4984 H   0  0  0  0  0  0  0  0  0  0  0  0
    0.0956   -1.3700   -2.8384 H   0  0  0  0  0  0  0  0  0  0  0  0
   -9.4739   -1.7149    2.3408 H   0  0  0  0  0  0  0  0  0  0  0  0
   -7.7372   -1.2165    2.6040 H   0  0  0  0  0  0  0  0  0  0  0  0
   -7.4554   -0.9460   -1.2518 H   0  0  0  0  0  0  0  0  0  0  0  0
   -7.6248    0.4759   -0.2358 H   0  0  0  0  0  0  0  0  0  0  0  0
   -5.5019    1.1386   -0.2908 H   0  0  0  0  0  0  0  0  0  0  0  0
   -4.0828    0.1133    0.1731 H   0  0  0  0  0  0  0  0  0  0  0  0
   -4.0148    0.1941   -3.7410 H   0  0  0  0  0  0  0  0  0  0  0  0
   -4.4528    1.6656   -2.8060 H   0  0  0  0  0  0  0  0  0  0  0  0
   -2.1354   -0.8528   -3.5633 H   0  0  0  0  0  0  0  0  0  0  0  0
   -2.1790   -1.1970   -1.8060 H   0  0  0  0  0  0  0  0  0  0  0  0
   10.1281    0.8735    1.6887 H   0  0  0  0  0  0  0  0  0  0  0  0
   10.6881    0.7265    0.0015 H   0  0  0  0  0  0  0  0  0  0  0  0
   10.2314   -1.7662    0.1130 H   0  0  0  0  0  0  0  0  0  0  0  0
    9.8048   -1.5946    1.8232 H   0  0  0  0  0  0  0  0  0  0  0  0
    3.3309   -2.8033   -0.4721 H   0  0  0  0  0  0  0  0  0  0  0  0
    2.1552   -1.7024    0.3330 H   0  0  0  0  0  0  0  0  0  0  0  0
    0.0782   -0.4014   -0.4553 H   0  0  0  0  0  0  0  0  0  0  0  0
    0.1390    1.2193   -1.2069 H   0  0  0  0  0  0  0  0  0  0  0  0
    1.9320   -1.9242   -2.2935 H   0  0  0  0  0  0  0  0  0  0  0  0
    3.4533   -1.0376   -2.3086 H   0  0  0  0  0  0  0  0  0  0  0  0
   -9.3799    0.2840    3.4577 H   0  0  0  0  0  0  0  0  0  0  0  0
   -5.9246   -0.4966    1.3994 H   0  0  0  0  0  0  0  0  0  0  0  0
   -2.2163    1.5628   -3.1274 H   0  0  0  0  0  0  0  0  0  0  0  0
   13.5915    1.1816    0.8211 H   0  0  0  0  0  0  0  0  0  0  0  0
  9 12  1  0
  9 13  1  0
 10 14  1  0
 10 15  1  0
 11 16  1  0
 17 18  1  0
 11 20  1  0
 19 21  1  0
  1 22  1  0
  2 22  1  0
 12 22  1  0
 23  3  1  0
 13 23  1  0
 14 23  1  0
 24  4  1  0
 15 24  1  0
 16 24  1  0
  5 25  1  0
  6 26  1  0
 25 26  1  0
  7 27  1  0
 19 28  1  0
 27 28  2  0
 17 29  1  0
 18 30  1  0
 25 31  2  0
 27 31  1  0
 26 32  2  0
 28 32  1  0
 33  8  1  6
 33 20  1  0
 21 33  1  0
 29 34  2  0
 29 35  1  0
 30 36  2  0
 30 37  1  0
 31 37  1  0
 32 38  1  0
 33 38  1  0
  1 39  1  0
  1 40  1  0
  1 41  1  0
  2 42  1  0
  2 43  1  0
  2 44  1  0
  3 45  1  0
  3 46  1  0
  3 47  1  0
  4 48  1  0
  4 49  1  0
  4 50  1  0
  5 51  1  0
  5 52  1  0
  5 53  1  0
  6 54  1  0
  6 55  1  0
  6 56  1  0
  7 57  1  0
  7 58  1  0
  7 59  1  0
  8 60  1  0
  8 61  1  0
  8 62  1  0
  9 63  1  0
  9 64  1  0
 10 65  1  0
 10 66  1  0
 11 67  1  0
 11 68  1  0
 12 69  1  0
 12 70  1  0
 13 71  1  0
 13 72  1  0
 14 73  1  0
 14 74  1  0
 15 75  1  0
 15 76  1  0
 16 77  1  0
 16 78  1  0
 17 79  1  0
 17 80  1  0
 18 81  1  0
 18 82  1  0
 19 83  1  0
 19 84  1  0
 20 85  1  0
 20 86  1  0
 21 87  1  0
 21 88  1  0
 22 89  1  0
 23 90  1  1
 24 91  1  6
 35 92  1  0
M  END

