404770703
     RDKit          3D

 81 83  0  0  1  0  0  0  0  0999 V2000
    2.8319   -1.6279   -1.5922 C   0  0  1  0  0  0  0  0  0  0  0  0
    3.9346   -0.6877   -2.0430 C   0  0  1  0  0  0  0  0  0  0  0  0
    1.1981    0.0681   -1.3394 O   0  0  0  0  0  0  0  0  0  0  0  0
    1.9744   -0.8832   -0.6445 C   0  0  1  0  0  0  0  0  0  0  0  0
    3.4889    0.7189   -1.8163 C   0  0  2  0  0  0  0  0  0  0  0  0
    2.0261    0.9691   -2.0082 C   0  0  2  0  0  0  0  0  0  0  0  0
    1.2649   -2.0856    3.7370 C   0  0  2  0  0  0  0  0  0  0  0  0
    0.7524   -3.2518    4.5629 C   0  0  0  0  0  0  0  0  0  0  0  0
    0.2711   -1.2029    3.5036 O   0  0  0  0  0  0  0  0  0  0  0  0
    0.0112   -1.0827    2.1500 C   0  0  2  0  0  0  0  0  0  0  0  0
    1.3220   -1.4696    1.4789 C   0  0  2  0  0  0  0  0  0  0  0  0
   -0.4567    0.0579    1.6716 O   0  0  0  0  0  0  0  0  0  0  0  0
   -2.8458    2.2924    1.6064 C   0  0  1  0  0  0  0  0  0  0  0  0
   -1.7968    3.1639    1.8007 O   0  0  0  0  0  0  0  0  0  0  0  0
   -1.6985    0.1030    1.1128 C   0  0  2  0  0  0  0  0  0  0  0  0
   -3.2537    1.0641   -0.4628 C   0  0  1  0  0  0  0  0  0  0  0  0
   -3.5330    1.1026   -1.8189 O   0  0  0  0  0  0  0  0  0  0  0  0
   -1.8469    0.4528   -0.3169 C   0  0  2  0  0  0  0  0  0  0  0  0
   -3.3268    2.3982    0.1914 C   0  0  1  0  0  0  0  0  0  0  0  0
   -2.5871    0.8943    2.0573 C   0  0  2  0  0  0  0  0  0  0  0  0
   -3.7983    0.2291    2.3173 O   0  0  0  0  0  0  0  0  0  0  0  0
   -1.8970   -0.7304   -1.1663 N   0  0  0  0  0  0  0  0  0  0  0  0
   -1.2115    0.2015   -3.3389 N   0  0  0  0  0  0  0  0  0  0  0  0
   -2.0824   -0.5741   -2.5566 C   0  0  0  0  0  0  0  0  0  0  0  0
   -3.1086   -1.2015   -3.0596 N   0  0  0  0  0  0  0  0  0  0  0  0
    1.1882   -1.7101    0.1412 O   0  0  0  0  0  0  0  0  0  0  0  0
    4.1459    1.4968   -2.8014 O   0  0  0  0  0  0  0  0  0  0  0  0
    5.1055   -0.9010   -1.3062 O   0  0  0  0  0  0  0  0  0  0  0  0
    1.7117    2.3525   -1.4645 C   0  0  0  0  0  0  0  0  0  0  0  0
    1.9474    2.4282   -0.0867 O   0  0  0  0  0  0  0  0  0  0  0  0
    3.0571   -2.7818   -3.6168 C   0  0  0  0  0  0  0  0  0  0  0  0
    2.1186   -2.0566   -2.7885 N   0  0  0  0  0  0  0  0  0  0  0  0
   -4.6492    2.9312    0.0718 N   0  0  0  0  0  0  0  0  0  0  0  0
   -4.7832    5.3407   -0.2550 N   0  0  0  0  0  0  0  0  0  0  0  0
   -5.0643    4.1904    0.5131 C   0  0  0  0  0  0  0  0  0  0  0  0
   -5.7016    4.3124    1.6164 N   0  0  0  0  0  0  0  0  0  0  0  0
    3.1888   -2.8501    2.5029 C   0  0  0  0  0  0  0  0  0  0  0  0
    3.7196   -3.3428    1.3407 O   0  0  0  0  0  0  0  0  0  0  0  0
    1.7298   -2.5919    2.3596 C   0  0  1  0  0  0  0  0  0  0  0  0
    1.0083   -3.7341    2.0124 O   0  0  0  0  0  0  0  0  0  0  0  0
    3.2703   -2.5244   -1.1510 H   0  0  0  0  0  0  0  0  0  0  0  0
    4.1946   -0.8993   -3.1010 H   0  0  0  0  0  0  0  0  0  0  0  0
    2.6198   -0.2371    0.0165 H   0  0  0  0  0  0  0  0  0  0  0  0
    3.8272    1.1485   -0.8518 H   0  0  0  0  0  0  0  0  0  0  0  0
    1.7320    0.9947   -3.0804 H   0  0  0  0  0  0  0  0  0  0  0  0
    2.1258   -1.6148    4.2395 H   0  0  0  0  0  0  0  0  0  0  0  0
   -0.2265   -3.6117    4.1914 H   0  0  0  0  0  0  0  0  0  0  0  0
    1.4711   -4.0832    4.6081 H   0  0  0  0  0  0  0  0  0  0  0  0
    0.5961   -2.9177    5.6100 H   0  0  0  0  0  0  0  0  0  0  0  0
   -0.7207   -1.9097    1.9327 H   0  0  0  0  0  0  0  0  0  0  0  0
    2.0533   -0.6267    1.6231 H   0  0  0  0  0  0  0  0  0  0  0  0
   -3.6919    2.6736    2.2509 H   0  0  0  0  0  0  0  0  0  0  0  0
   -1.9797    3.9826    1.2694 H   0  0  0  0  0  0  0  0  0  0  0  0
   -2.0923   -0.9606    1.2003 H   0  0  0  0  0  0  0  0  0  0  0  0
   -3.9424    0.3250   -0.0092 H   0  0  0  0  0  0  0  0  0  0  0  0
   -4.5147    0.9636   -1.9320 H   0  0  0  0  0  0  0  0  0  0  0  0
   -1.1791    1.2388   -0.6802 H   0  0  0  0  0  0  0  0  0  0  0  0
   -2.6570    3.0898   -0.4000 H   0  0  0  0  0  0  0  0  0  0  0  0
   -2.1074    0.9765    3.0782 H   0  0  0  0  0  0  0  0  0  0  0  0
   -4.3498    0.8994    2.8165 H   0  0  0  0  0  0  0  0  0  0  0  0
   -1.7919   -1.6737   -0.7083 H   0  0  0  0  0  0  0  0  0  0  0  0
   -1.4867    1.1607   -3.6338 H   0  0  0  0  0  0  0  0  0  0  0  0
   -0.2773   -0.1546   -3.6458 H   0  0  0  0  0  0  0  0  0  0  0  0
   -3.3179   -1.1404   -4.0726 H   0  0  0  0  0  0  0  0  0  0  0  0
    4.5896    2.2813   -2.4374 H   0  0  0  0  0  0  0  0  0  0  0  0
    5.1307   -0.3360   -0.4824 H   0  0  0  0  0  0  0  0  0  0  0  0
    0.6423    2.5960   -1.7075 H   0  0  0  0  0  0  0  0  0  0  0  0
    2.3622    3.0811   -2.0046 H   0  0  0  0  0  0  0  0  0  0  0  0
    2.1907    3.3753    0.1558 H   0  0  0  0  0  0  0  0  0  0  0  0
    3.4235   -2.1902   -4.4747 H   0  0  0  0  0  0  0  0  0  0  0  0
    3.9100   -3.1575   -2.9972 H   0  0  0  0  0  0  0  0  0  0  0  0
    2.5611   -3.6862   -4.0735 H   0  0  0  0  0  0  0  0  0  0  0  0
    1.2495   -2.5605   -2.5854 H   0  0  0  0  0  0  0  0  0  0  0  0
   -5.3854    2.3302   -0.3884 H   0  0  0  0  0  0  0  0  0  0  0  0
   -4.0074    5.9558    0.0839 H   0  0  0  0  0  0  0  0  0  0  0  0
   -5.3180    5.5888   -1.1336 H   0  0  0  0  0  0  0  0  0  0  0  0
   -5.9512    3.5190    2.2460 H   0  0  0  0  0  0  0  0  0  0  0  0
    3.7480   -1.9742    2.9082 H   0  0  0  0  0  0  0  0  0  0  0  0
    3.3452   -3.6489    3.2871 H   0  0  0  0  0  0  0  0  0  0  0  0
    4.2027   -4.2172    1.4488 H   0  0  0  0  0  0  0  0  0  0  0  0
    1.3969   -4.0580    1.1598 H   0  0  0  0  0  0  0  0  0  0  0  0
  1 32  1  0
  1  2  1  0
  2 28  1  0
  3  4  1  0
  1  4  1  0
  4 26  1  0
  2  5  1  0
  5 27  1  0
  5  6  1  0
  3  6  1  0
  6 29  1  0
  7  9  1  0
  7 39  1  0
  7  8  1  0
  9 10  1  0
 10 11  1  0
 10 12  1  0
 11 39  1  0
 11 26  1  0
 15 12  1  0
 13 19  1  0
 13 20  1  0
 13 14  1  0
 15 18  1  0
 15 20  1  0
 16 19  1  0
 16 18  1  0
 16 17  1  0
 18 22  1  0
 19 33  1  0
 20 21  1  0
 22 24  1  0
 23 24  1  0
 24 25  2  3
 29 30  1  0
 31 32  1  0
 33 35  1  0
 34 35  1  0
 35 36  2  3
 39 37  1  0
 37 38  1  0
 39 40  1  6
  1 41  1  1
  2 42  1  6
  4 43  1  1
  5 44  1  1
  6 45  1  6
  7 46  1  1
  8 47  1  0
  8 48  1  0
  8 49  1  0
 10 50  1  6
 11 51  1  6
 13 52  1  1
 14 53  1  0
 15 54  1  6
 16 55  1  1
 17 56  1  0
 18 57  1  6
 19 58  1  6
 20 59  1  1
 21 60  1  0
 22 61  1  0
 23 62  1  0
 23 63  1  0
 25 64  1  0
 27 65  1  0
 28 66  1  0
 29 67  1  0
 29 68  1  0
 30 69  1  0
 31 70  1  0
 31 71  1  0
 31 72  1  0
 32 73  1  0
 33 74  1  0
 34 75  1  0
 34 76  1  0
 36 77  1  0
 37 78  1  0
 37 79  1  0
 38 80  1  0
 40 81  1  0
M  END

