404772573
     RDKit          3D

 65 69  0  0  0  0  0  0  0  0999 V2000
    9.0653    2.3321   -1.3806 C   0  0  0  0  0  0  0  0  0  0  0  0
    8.8694    2.2092    0.0361 N   0  0  0  0  0  0  0  0  0  0  0  0
    8.2487    0.9565    0.3258 C   0  0  0  0  0  0  0  0  0  0  0  0
    7.2426    1.0298    1.4480 C   0  0  0  0  0  0  0  0  0  0  0  0
    6.2134    2.0915    1.2818 C   0  0  0  0  0  0  0  0  0  0  0  0
    4.8925    1.5573    0.7709 C   0  0  0  0  0  0  0  0  0  0  0  0
    4.3633    0.5964    1.6727 O   0  0  0  0  0  0  0  0  0  0  0  0
    3.1705   -0.0154    1.4037 C   0  0  0  0  0  0  0  0  0  0  0  0
    2.6746   -0.9457    2.2900 C   0  0  0  0  0  0  0  0  0  0  0  0
    1.4868   -1.5350    1.9931 N   0  0  0  0  0  0  0  0  0  0  0  0
    0.8016   -1.2425    0.8878 C   0  0  0  0  0  0  0  0  0  0  0  0
    1.2824   -0.3414    0.0293 N   0  0  0  0  0  0  0  0  0  0  0  0
    2.4555    0.2782    0.2674 C   0  0  0  0  0  0  0  0  0  0  0  0
   -0.4732   -1.9373    0.6605 C   0  0  0  0  0  0  0  0  0  0  0  0
   -1.2528   -1.6909   -0.4596 C   0  0  0  0  0  0  0  0  0  0  0  0
   -2.4447   -2.3544   -0.6520 C   0  0  0  0  0  0  0  0  0  0  0  0
   -3.2404   -2.0554   -1.8568 C   0  0  0  0  0  0  0  0  0  0  0  0
   -4.2143   -0.9926   -1.6216 N   0  0  0  0  0  0  0  0  0  0  0  0
   -5.4201   -1.2903   -1.1910 N   0  0  0  0  0  0  0  0  0  0  0  0
   -6.3923   -0.3722   -0.9411 C   0  0  0  0  0  0  0  0  0  0  0  0
   -6.1143    0.9593   -1.1465 C   0  0  0  0  0  0  0  0  0  0  0  0
   -4.8564    1.3122   -1.5995 C   0  0  0  0  0  0  0  0  0  0  0  0
   -3.9455    0.3089   -1.8216 C   0  0  0  0  0  0  0  0  0  0  0  0
   -2.8102    0.6396   -2.2315 O   0  0  0  0  0  0  0  0  0  0  0  0
   -7.7051   -0.8173   -0.4604 C   0  0  0  0  0  0  0  0  0  0  0  0
   -8.7134    0.0414   -0.1932 C   0  0  0  0  0  0  0  0  0  0  0  0
   -9.9675   -0.3904    0.2662 C   0  0  0  0  0  0  0  0  0  0  0  0
  -10.1706   -1.7459    0.4498 C   0  0  0  0  0  0  0  0  0  0  0  0
   -9.1525   -2.6145    0.1802 C   0  0  0  0  0  0  0  0  0  0  0  0
   -7.9234   -2.1731   -0.2718 C   0  0  0  0  0  0  0  0  0  0  0  0
  -10.9866    0.5725    0.5274 C   0  0  0  0  0  0  0  0  0  0  0  0
  -11.8112    1.3497    0.7578 N   0  0  0  0  0  0  0  0  0  0  0  0
   -2.9047   -3.2793    0.2509 C   0  0  0  0  0  0  0  0  0  0  0  0
   -2.1277   -3.5236    1.3654 C   0  0  0  0  0  0  0  0  0  0  0  0
   -0.9312   -2.8636    1.5674 C   0  0  0  0  0  0  0  0  0  0  0  0
    6.6580    3.1912    0.3289 C   0  0  0  0  0  0  0  0  0  0  0  0
    8.1600    3.3507    0.5497 C   0  0  0  0  0  0  0  0  0  0  0  0
    8.1063    2.3848   -1.9462 H   0  0  0  0  0  0  0  0  0  0  0  0
    9.6902    3.2341   -1.5509 H   0  0  0  0  0  0  0  0  0  0  0  0
    9.5661    1.3986   -1.7408 H   0  0  0  0  0  0  0  0  0  0  0  0
    7.8413    0.4341   -0.5777 H   0  0  0  0  0  0  0  0  0  0  0  0
    9.0673    0.2700    0.6975 H   0  0  0  0  0  0  0  0  0  0  0  0
    6.7271    0.0446    1.4958 H   0  0  0  0  0  0  0  0  0  0  0  0
    7.8126    1.1130    2.4095 H   0  0  0  0  0  0  0  0  0  0  0  0
    6.0445    2.5760    2.2654 H   0  0  0  0  0  0  0  0  0  0  0  0
    5.0148    1.1271   -0.2472 H   0  0  0  0  0  0  0  0  0  0  0  0
    4.1479    2.3744    0.6942 H   0  0  0  0  0  0  0  0  0  0  0  0
    3.2349   -1.1799    3.1872 H   0  0  0  0  0  0  0  0  0  0  0  0
    2.8624    1.0118   -0.4158 H   0  0  0  0  0  0  0  0  0  0  0  0
   -0.8530   -0.9499   -1.1537 H   0  0  0  0  0  0  0  0  0  0  0  0
   -2.5642   -1.6817   -2.6494 H   0  0  0  0  0  0  0  0  0  0  0  0
   -3.7962   -2.9640   -2.1913 H   0  0  0  0  0  0  0  0  0  0  0  0
   -6.8485    1.7395   -0.9651 H   0  0  0  0  0  0  0  0  0  0  0  0
   -4.6074    2.3665   -1.7718 H   0  0  0  0  0  0  0  0  0  0  0  0
   -8.6061    1.0928   -0.3186 H   0  0  0  0  0  0  0  0  0  0  0  0
  -11.1224   -2.1185    0.8025 H   0  0  0  0  0  0  0  0  0  0  0  0
   -9.3463   -3.6797    0.3360 H   0  0  0  0  0  0  0  0  0  0  0  0
   -7.1140   -2.8627   -0.4865 H   0  0  0  0  0  0  0  0  0  0  0  0
   -3.8288   -3.8280    0.1515 H   0  0  0  0  0  0  0  0  0  0  0  0
   -2.4458   -4.2391    2.1013 H   0  0  0  0  0  0  0  0  0  0  0  0
   -0.3428   -3.0875    2.4679 H   0  0  0  0  0  0  0  0  0  0  0  0
    6.4193    2.9139   -0.7051 H   0  0  0  0  0  0  0  0  0  0  0  0
    6.1472    4.1242    0.5694 H   0  0  0  0  0  0  0  0  0  0  0  0
    8.4498    4.2440   -0.0670 H   0  0  0  0  0  0  0  0  0  0  0  0
    8.3170    3.5460    1.6111 H   0  0  0  0  0  0  0  0  0  0  0  0
  1  2  1  0
  2  3  1  0
  3  4  1  0
  4  5  1  0
  5  6  1  0
  6  7  1  0
  7  8  1  0
  8  9  2  0
  9 10  1  0
 10 11  2  0
 11 12  1  0
 12 13  2  0
  8 13  1  0
 11 14  1  0
 14 15  2  0
 15 16  1  0
 16 17  1  0
 17 18  1  0
 18 19  1  0
 19 20  2  0
 20 21  1  0
 21 22  2  0
 22 23  1  0
 18 23  1  0
 23 24  2  0
 20 25  1  0
 25 26  2  0
 26 27  1  0
 27 28  2  0
 28 29  1  0
 29 30  2  0
 25 30  1  0
 27 31  1  0
 31 32  3  0
 16 33  2  0
 33 34  1  0
 34 35  2  0
 14 35  1  0
  5 36  1  0
 36 37  1  0
  2 37  1  0
  1 38  1  0
  1 39  1  0
  1 40  1  0
  3 41  1  0
  3 42  1  0
  4 43  1  0
  4 44  1  0
  5 45  1  0
  6 46  1  0
  6 47  1  0
  9 48  1  0
 13 49  1  0
 15 50  1  0
 17 51  1  0
 17 52  1  0
 21 53  1  0
 22 54  1  0
 26 55  1  0
 28 56  1  0
 29 57  1  0
 30 58  1  0
 33 59  1  0
 34 60  1  0
 35 61  1  0
 36 62  1  0
 36 63  1  0
 37 64  1  0
 37 65  1  0
M  END

