404770237
     RDKit          3D

 30 31  0  0  1  0  0  0  0  0999 V2000
    1.5593    1.4883    0.6510 C   0  0  0  0  0  0  0  0  0  0  0  0
    2.8653    1.1901    0.6040 N   0  0  0  0  0  0  0  0  0  0  0  0
    3.0643    0.1403   -0.1909 C   0  0  0  0  0  0  0  0  0  0  0  0
    1.8601   -0.2203   -0.6460 N   0  0  0  0  0  0  0  0  0  0  0  0
    0.9393    0.5989   -0.1354 N   0  0  0  0  0  0  0  0  0  0  0  0
   -0.4489    0.4607   -0.4424 C   0  0  1  0  0  0  0  0  0  0  0  0
   -0.8939   -0.9760   -0.1815 C   0  0  1  0  0  0  0  0  0  0  0  0
   -2.1211   -0.7460    0.6786 C   0  0  1  0  0  0  0  0  0  0  0  0
   -2.4931    0.6348    0.2005 C   0  0  2  0  0  0  0  0  0  0  0  0
   -1.2772    1.2739    0.2908 O   0  0  0  0  0  0  0  0  0  0  0  0
   -3.5915    1.2639    0.9865 C   0  0  0  0  0  0  0  0  0  0  0  0
   -4.7479    0.5087    0.7947 O   0  0  0  0  0  0  0  0  0  0  0  0
   -3.1096   -1.6847    0.4574 O   0  0  0  0  0  0  0  0  0  0  0  0
   -1.2977   -1.5235   -1.3727 O   0  0  0  0  0  0  0  0  0  0  0  0
    4.3077   -0.5329   -0.5410 C   0  0  0  0  0  0  0  0  0  0  0  0
    4.3795   -1.5363   -1.3176 N   0  0  0  0  0  0  0  0  0  0  0  0
    5.5008   -0.0313    0.0233 N   0  0  0  0  0  0  0  0  0  0  0  0
    1.0743    2.2732    1.1972 H   0  0  0  0  0  0  0  0  0  0  0  0
   -0.5907    0.7282   -1.5214 H   0  0  0  0  0  0  0  0  0  0  0  0
   -0.1151   -1.5511    0.3488 H   0  0  0  0  0  0  0  0  0  0  0  0
   -1.7741   -0.7160    1.7406 H   0  0  0  0  0  0  0  0  0  0  0  0
   -2.7990    0.5825   -0.8520 H   0  0  0  0  0  0  0  0  0  0  0  0
   -3.7835    2.2654    0.5786 H   0  0  0  0  0  0  0  0  0  0  0  0
   -3.3731    1.3510    2.0676 H   0  0  0  0  0  0  0  0  0  0  0  0
   -4.7822   -0.3044    1.3335 H   0  0  0  0  0  0  0  0  0  0  0  0
   -3.0778   -1.9430   -0.4912 H   0  0  0  0  0  0  0  0  0  0  0  0
   -0.7413   -1.2862   -2.1440 H   0  0  0  0  0  0  0  0  0  0  0  0
    3.5865   -1.9961   -1.7918 H   0  0  0  0  0  0  0  0  0  0  0  0
    5.9303   -0.5412    0.8165 H   0  0  0  0  0  0  0  0  0  0  0  0
    5.9502    0.8291   -0.3379 H   0  0  0  0  0  0  0  0  0  0  0  0
  1  2  2  0
  2  3  1  0
  3  4  2  0
  4  5  1  0
  1  5  1  0
  6  5  1  0
  6  7  1  0
  7  8  1  0
  8  9  1  0
  9 10  1  0
  6 10  1  0
  9 11  1  0
 11 12  1  0
  8 13  1  0
  7 14  1  0
  3 15  1  0
 15 16  2  3
 15 17  1  0
  1 18  1  0
  6 19  1  6
  7 20  1  1
  8 21  1  1
  9 22  1  6
 11 23  1  0
 11 24  1  0
 12 25  1  0
 13 26  1  0
 14 27  1  0
 16 28  1  0
 17 29  1  0
 17 30  1  0
M  END

