404772741
     RDKit          3D

 48 52  0  0  0  0  0  0  0  0999 V2000
   -5.0806    2.7936   -0.0889 C   0  0  0  0  0  0  0  0  0  0  0  0
   -3.9362    2.4712    0.8210 C   0  0  0  0  0  0  0  0  0  0  0  0
   -2.8494    1.8129    0.3741 N   0  0  0  0  0  0  0  0  0  0  0  0
   -1.8106    1.5025    1.1363 C   0  0  0  0  0  0  0  0  0  0  0  0
   -1.8226    1.8647    2.4656 C   0  0  0  0  0  0  0  0  0  0  0  0
   -2.8942    2.5418    3.0107 C   0  0  0  0  0  0  0  0  0  0  0  0
   -3.9406    2.8322    2.1596 C   0  0  0  0  0  0  0  0  0  0  0  0
   -0.6133    0.7811    0.6564 C   0  0  0  0  0  0  0  0  0  0  0  0
   -0.5370   -0.4851    0.1178 C   0  0  0  0  0  0  0  0  0  0  0  0
    0.7718   -0.7181   -0.1703 N   0  0  0  0  0  0  0  0  0  0  0  0
    1.4980    0.3488    0.1682 C   0  0  0  0  0  0  0  0  0  0  0  0
    2.9611    0.5742    0.0479 C   0  0  0  0  0  0  0  0  0  0  0  0
    3.6161   -0.5413   -0.6106 N   0  0  0  0  0  0  0  0  0  0  0  0
    5.0175   -0.5056   -0.8148 C   0  0  0  0  0  0  0  0  0  0  0  0
    5.6813   -1.5398   -1.4408 C   0  0  0  0  0  0  0  0  0  0  0  0
    4.9158   -2.6004   -1.8540 F   0  0  0  0  0  0  0  0  0  0  0  0
    7.0438   -1.4985   -1.6355 C   0  0  0  0  0  0  0  0  0  0  0  0
    7.8024   -0.4310   -1.2175 C   0  0  0  0  0  0  0  0  0  0  0  0
    7.1516    0.6115   -0.5892 C   0  0  0  0  0  0  0  0  0  0  0  0
    5.7749    0.5612   -0.3968 C   0  0  0  0  0  0  0  0  0  0  0  0
    0.6523    1.2614    0.6717 N   0  0  0  0  0  0  0  0  0  0  0  0
   -1.6633   -1.3723   -0.0900 C   0  0  0  0  0  0  0  0  0  0  0  0
   -2.6242   -1.0468   -1.0126 C   0  0  0  0  0  0  0  0  0  0  0  0
   -3.6831   -1.8545   -1.2210 N   0  0  0  0  0  0  0  0  0  0  0  0
   -4.6978   -1.7122   -2.0557 N   0  0  0  0  0  0  0  0  0  0  0  0
   -5.5237   -2.7681   -1.9233 C   0  0  0  0  0  0  0  0  0  0  0  0
   -4.9775   -3.5420   -0.9910 N   0  0  0  0  0  0  0  0  0  0  0  0
   -3.8242   -2.9856   -0.5398 C   0  0  0  0  0  0  0  0  0  0  0  0
   -2.8765   -3.3466    0.3977 C   0  0  0  0  0  0  0  0  0  0  0  0
   -1.7759   -2.5340    0.6330 C   0  0  0  0  0  0  0  0  0  0  0  0
   -5.9968    2.2445    0.2218 H   0  0  0  0  0  0  0  0  0  0  0  0
   -5.3179    3.8741   -0.0286 H   0  0  0  0  0  0  0  0  0  0  0  0
   -4.7612    2.5512   -1.1116 H   0  0  0  0  0  0  0  0  0  0  0  0
   -1.0019    1.6370    3.1321 H   0  0  0  0  0  0  0  0  0  0  0  0
   -2.8930    2.8224    4.0595 H   0  0  0  0  0  0  0  0  0  0  0  0
   -4.8142    3.3612    2.5185 H   0  0  0  0  0  0  0  0  0  0  0  0
    3.3870    0.6918    1.0724 H   0  0  0  0  0  0  0  0  0  0  0  0
    3.2189    1.4875   -0.5178 H   0  0  0  0  0  0  0  0  0  0  0  0
    3.0787   -1.3641   -0.9347 H   0  0  0  0  0  0  0  0  0  0  0  0
    7.5338   -2.3176   -2.1256 H   0  0  0  0  0  0  0  0  0  0  0  0
    8.8922   -0.4009   -1.3745 H   0  0  0  0  0  0  0  0  0  0  0  0
    7.7504    1.4459   -0.2630 H   0  0  0  0  0  0  0  0  0  0  0  0
    5.3351    1.4113    0.1012 H   0  0  0  0  0  0  0  0  0  0  0  0
    0.9017    2.2231    1.0359 H   0  0  0  0  0  0  0  0  0  0  0  0
   -2.5527   -0.1276   -1.6019 H   0  0  0  0  0  0  0  0  0  0  0  0
   -6.4345   -2.8901   -2.4992 H   0  0  0  0  0  0  0  0  0  0  0  0
   -3.0149   -4.2716    0.9383 H   0  0  0  0  0  0  0  0  0  0  0  0
   -1.0664   -2.8535    1.3690 H   0  0  0  0  0  0  0  0  0  0  0  0
  1  2  1  0
  2  3  2  0
  3  4  1  0
  4  5  2  0
  5  6  1  0
  6  7  2  0
  2  7  1  0
  4  8  1  0
  8  9  2  0
  9 10  1  0
 10 11  2  0
 11 12  1  0
 12 13  1  0
 13 14  1  0
 14 15  2  0
 15 16  1  0
 15 17  1  0
 17 18  2  0
 18 19  1  0
 19 20  2  0
 14 20  1  0
 11 21  1  0
  8 21  1  0
  9 22  1  0
 22 23  2  0
 23 24  1  0
 24 25  1  0
 25 26  2  0
 26 27  1  0
 27 28  2  0
 24 28  1  0
 28 29  1  0
 29 30  2  0
 22 30  1  0
  1 31  1  0
  1 32  1  0
  1 33  1  0
  5 34  1  0
  6 35  1  0
  7 36  1  0
 12 37  1  0
 12 38  1  0
 13 39  1  0
 17 40  1  0
 18 41  1  0
 19 42  1  0
 20 43  1  0
 21 44  1  0
 23 45  1  0
 26 46  1  0
 29 47  1  0
 30 48  1  0
M  END

