404770366
     RDKit          3D

 76 79  0  0  1  0  0  0  0  0999 V2000
    2.1285    0.0896   -0.6757 C   0  0  0  0  0  0  0  0  0  0  0  0
    1.4384   -1.0975   -0.0837 C   0  0  0  0  0  0  0  0  0  0  0  0
    1.7612   -1.0604    1.4376 C   0  0  0  0  0  0  0  0  0  0  0  0
    3.2183   -1.3321    1.6212 C   0  0  0  0  0  0  0  0  0  0  0  0
    3.9688   -0.3043    0.8797 N   0  0  0  0  0  0  0  0  0  0  0  0
    3.2508    0.6505    0.1118 C   0  0  0  0  0  0  0  0  0  0  0  0
    5.3761   -0.2567    0.9747 C   0  0  0  0  0  0  0  0  0  0  0  0
    6.1917    0.6967    0.2480 C   0  0  0  0  0  0  0  0  0  0  0  0
    6.6701    0.3060   -1.0166 C   0  0  0  0  0  0  0  0  0  0  0  0
    7.4181    1.1544   -1.6963 N   0  0  0  0  0  0  0  0  0  0  0  0
    7.7656    2.3945   -1.2605 C   0  0  0  0  0  0  0  0  0  0  0  0
    7.3004    2.7436   -0.0590 N   0  0  0  0  0  0  0  0  0  0  0  0
    6.5319    1.9350    0.6952 C   0  0  0  0  0  0  0  0  0  0  0  0
   -0.5375    0.0454    0.5748 C   0  0  0  0  0  0  0  0  0  0  0  0
   -1.8706    0.5929    0.1707 C   0  0  1  0  0  0  0  0  0  0  0  0
   -2.5336   -0.1732   -0.7116 N   0  0  0  0  0  0  0  0  0  0  0  0
   -1.7289   -0.5499   -1.8545 C   0  0  0  0  0  0  0  0  0  0  0  0
   -0.5737   -1.3740   -1.4153 C   0  0  0  0  0  0  0  0  0  0  0  0
    0.0092   -0.9605   -0.2100 N   0  0  0  0  0  0  0  0  0  0  0  0
   -5.8550    2.3134   -0.6401 C   0  0  0  0  0  0  0  0  0  0  0  0
   -7.1039    1.8540   -0.1955 C   0  0  0  0  0  0  0  0  0  0  0  0
   -7.2370    0.5141    0.0895 C   0  0  0  0  0  0  0  0  0  0  0  0
   -6.1326   -0.3445   -0.0704 C   0  0  0  0  0  0  0  0  0  0  0  0
   -4.9328    0.1271   -0.5040 C   0  0  0  0  0  0  0  0  0  0  0  0
   -4.7930    1.4631   -0.7896 C   0  0  0  0  0  0  0  0  0  0  0  0
   -3.7762   -0.8057   -0.6379 C   0  0  2  0  0  0  0  0  0  0  0  0
   -8.2569    2.7845   -0.0419 C   0  0  0  0  0  0  0  0  0  0  0  0
   -9.3867    2.3385   -0.6675 F   0  0  0  0  0  0  0  0  0  0  0  0
   -8.5446    2.8640    1.3090 F   0  0  0  0  0  0  0  0  0  0  0  0
   -7.8411    4.0366   -0.4755 F   0  0  0  0  0  0  0  0  0  0  0  0
    6.3125   -1.0614   -1.5274 C   0  0  0  0  0  0  0  0  0  0  0  0
    6.0450    2.4080    2.0262 C   0  0  0  0  0  0  0  0  0  0  0  0
    2.0437   -2.3420   -0.6082 C   0  0  0  0  0  0  0  0  0  0  0  0
   -2.4789    1.1159    1.4376 C   0  0  0  0  0  0  0  0  0  0  0  0
   -3.8427   -1.9341    0.3550 C   0  0  0  0  0  0  0  0  0  0  0  0
   -3.5517   -1.6095    1.6483 O   0  0  0  0  0  0  0  0  0  0  0  0
   -3.6186   -2.7179    2.4898 C   0  0  0  0  0  0  0  0  0  0  0  0
    5.9390   -1.1006    1.7395 O   0  0  0  0  0  0  0  0  0  0  0  0
    1.4341    0.9450   -0.8972 H   0  0  0  0  0  0  0  0  0  0  0  0
    2.5333   -0.1644   -1.7047 H   0  0  0  0  0  0  0  0  0  0  0  0
    1.1171   -1.8310    1.9577 H   0  0  0  0  0  0  0  0  0  0  0  0
    1.5338   -0.0669    1.8531 H   0  0  0  0  0  0  0  0  0  0  0  0
    3.5420   -2.3509    1.3197 H   0  0  0  0  0  0  0  0  0  0  0  0
    3.5293   -1.2343    2.6852 H   0  0  0  0  0  0  0  0  0  0  0  0
    2.9318    1.5440    0.7352 H   0  0  0  0  0  0  0  0  0  0  0  0
    3.9690    1.1280   -0.6267 H   0  0  0  0  0  0  0  0  0  0  0  0
    8.3937    3.0363   -1.8817 H   0  0  0  0  0  0  0  0  0  0  0  0
   -0.5982   -0.3629    1.6491 H   0  0  0  0  0  0  0  0  0  0  0  0
    0.1699    0.9293    0.6327 H   0  0  0  0  0  0  0  0  0  0  0  0
   -1.5926    1.5733   -0.3998 H   0  0  0  0  0  0  0  0  0  0  0  0
   -1.3511    0.3764   -2.3127 H   0  0  0  0  0  0  0  0  0  0  0  0
   -2.3665   -1.1498   -2.5405 H   0  0  0  0  0  0  0  0  0  0  0  0
    0.2040   -1.2675   -2.2378 H   0  0  0  0  0  0  0  0  0  0  0  0
   -0.9304   -2.4439   -1.3930 H   0  0  0  0  0  0  0  0  0  0  0  0
   -5.8128    3.3882   -0.8484 H   0  0  0  0  0  0  0  0  0  0  0  0
   -8.2036    0.1482    0.4289 H   0  0  0  0  0  0  0  0  0  0  0  0
   -6.3555   -1.3838    0.1811 H   0  0  0  0  0  0  0  0  0  0  0  0
   -3.8518    1.8559   -1.1239 H   0  0  0  0  0  0  0  0  0  0  0  0
   -3.9594   -1.2950   -1.6352 H   0  0  0  0  0  0  0  0  0  0  0  0
    7.2772   -1.5342   -1.7754 H   0  0  0  0  0  0  0  0  0  0  0  0
    5.8007   -1.6087   -0.7114 H   0  0  0  0  0  0  0  0  0  0  0  0
    5.6359   -0.9175   -2.3868 H   0  0  0  0  0  0  0  0  0  0  0  0
    6.7461    2.0585    2.8009 H   0  0  0  0  0  0  0  0  0  0  0  0
    5.0017    2.0304    2.1979 H   0  0  0  0  0  0  0  0  0  0  0  0
    6.0692    3.5154    1.9930 H   0  0  0  0  0  0  0  0  0  0  0  0
    3.1332   -2.1350   -0.8770 H   0  0  0  0  0  0  0  0  0  0  0  0
    2.0710   -3.1550    0.1495 H   0  0  0  0  0  0  0  0  0  0  0  0
    1.5955   -2.7371   -1.5213 H   0  0  0  0  0  0  0  0  0  0  0  0
   -2.2317    2.2031    1.5869 H   0  0  0  0  0  0  0  0  0  0  0  0
   -1.9733    0.6195    2.3392 H   0  0  0  0  0  0  0  0  0  0  0  0
   -3.5284    1.0352    1.6151 H   0  0  0  0  0  0  0  0  0  0  0  0
   -3.0744   -2.7398    0.0834 H   0  0  0  0  0  0  0  0  0  0  0  0
   -4.7845   -2.4967    0.3361 H   0  0  0  0  0  0  0  0  0  0  0  0
   -2.9402   -3.5381    2.2155 H   0  0  0  0  0  0  0  0  0  0  0  0
   -4.6570   -3.0297    2.6329 H   0  0  0  0  0  0  0  0  0  0  0  0
   -3.2504   -2.3481    3.4880 H   0  0  0  0  0  0  0  0  0  0  0  0
  1  2  1  0
  1  6  1  0
  2  3  1  0
  3  4  1  0
  4  5  1  0
  5  6  1  0
  5  7  1  0
  7  8  1  0
  8  9  2  0
  8 13  1  0
  9 10  1  0
 10 11  2  0
 11 12  1  0
 12 13  2  0
  2 19  1  0
 14 15  1  0
 14 19  1  0
 15 16  1  0
 16 17  1  0
 17 18  1  0
 18 19  1  0
 20 21  2  0
 20 25  1  0
 21 22  1  0
 22 23  2  0
 23 24  1  0
 24 25  2  0
 16 26  1  0
 24 26  1  0
 21 27  1  0
 27 28  1  0
 27 29  1  0
 27 30  1  0
  9 31  1  0
 13 32  1  0
  2 33  1  0
 15 34  1  0
 26 35  1  0
 35 36  1  0
 36 37  1  0
  7 38  2  0
  1 39  1  0
  1 40  1  0
  3 41  1  0
  3 42  1  0
  4 43  1  0
  4 44  1  0
  6 45  1  0
  6 46  1  0
 11 47  1  0
 14 48  1  0
 14 49  1  0
 15 50  1  6
 17 51  1  0
 17 52  1  0
 18 53  1  0
 18 54  1  0
 20 55  1  0
 22 56  1  0
 23 57  1  0
 25 58  1  0
 26 59  1  6
 31 60  1  0
 31 61  1  0
 31 62  1  0
 32 63  1  0
 32 64  1  0
 32 65  1  0
 33 66  1  0
 33 67  1  0
 33 68  1  0
 34 69  1  0
 34 70  1  0
 34 71  1  0
 35 72  1  0
 35 73  1  0
 37 74  1  0
 37 75  1  0
 37 76  1  0
M  END

