404771108
     RDKit          3D

105105  0  0  1  0  0  0  0  0999 V2000
    9.1776   -2.2247    0.5964 C   0  0  0  0  0  0  0  0  0  0  0  0
    7.7933   -1.5859    0.4801 C   0  0  0  0  0  0  0  0  0  0  0  0
    7.8288   -0.1483    0.9471 C   0  0  0  0  0  0  0  0  0  0  0  0
    6.4973    0.5427    0.8711 C   0  0  0  0  0  0  0  0  0  0  0  0
    5.9252    0.5952   -0.5270 C   0  0  0  0  0  0  0  0  0  0  0  0
    4.5960    1.2604   -0.5930 C   0  0  2  0  0  0  0  0  0  0  0  0
    3.5098    0.6572    0.2307 C   0  0  2  0  0  0  0  0  0  0  0  0
    3.2407   -0.7670   -0.1370 C   0  0  2  0  0  0  0  0  0  0  0  0
    2.2267   -1.3164    0.8869 C   0  0  0  0  0  0  0  0  0  0  0  0
    1.6376   -2.6150    0.3738 C   0  0  2  0  0  0  0  0  0  0  0  0
    0.1786   -2.6231    0.7618 C   0  0  0  0  0  0  0  0  0  0  0  0
   -0.4442   -3.9527    0.4019 C   0  0  2  0  0  0  0  0  0  0  0  0
   -1.1072   -3.8347   -0.9556 C   0  0  0  0  0  0  0  0  0  0  0  0
   -2.4731   -4.5147   -0.9709 C   0  0  2  0  0  0  0  0  0  0  0  0
   -3.5216   -3.4811   -0.6160 C   0  0  0  0  0  0  0  0  0  0  0  0
   -4.5835   -3.3624   -1.6906 C   0  0  2  0  0  0  0  0  0  0  0  0
   -4.8423   -1.9197   -2.0641 C   0  0  0  0  0  0  0  0  0  0  0  0
   -6.1847   -1.4544   -1.5959 C   0  0  2  0  0  0  0  0  0  0  0  0
   -6.3023    0.0448   -1.4570 C   0  0  2  0  0  0  0  0  0  0  0  0
   -5.1002    0.6159   -0.7492 C   0  0  1  0  0  0  0  0  0  0  0  0
   -5.3288    2.0524   -0.3243 C   0  0  0  0  0  0  0  0  0  0  0  0
   -4.5734    2.6651    0.5707 C   0  0  0  0  0  0  0  0  0  0  0  0
   -3.4347    2.1252    1.2849 C   0  0  0  0  0  0  0  0  0  0  0  0
   -2.2448    1.8320    0.7703 C   0  0  0  0  0  0  0  0  0  0  0  0
   -1.8744    2.0114   -0.6262 C   0  0  0  0  0  0  0  0  0  0  0  0
   -1.8580    3.1412   -1.3097 C   0  0  0  0  0  0  0  0  0  0  0  0
   -2.1814    4.4919   -0.9097 C   0  0  0  0  0  0  0  0  0  0  0  0
   -1.4364    5.4854   -0.4861 C   0  0  0  0  0  0  0  0  0  0  0  0
   -0.0249    5.6357   -0.2575 C   0  0  0  0  0  0  0  0  0  0  0  0
    0.8095    5.1380    0.5851 C   0  0  0  0  0  0  0  0  0  0  0  0
    0.6120    4.1724    1.6953 C   0  0  1  0  0  0  0  0  0  0  0  0
    1.7819    3.1858    1.6731 C   0  0  2  0  0  0  0  0  0  0  0  0
    2.0301    2.7004    0.4024 O   0  0  0  0  0  0  0  0  0  0  0  0
    2.2704    1.4612   -0.0714 C   0  0  0  0  0  0  0  0  0  0  0  0
    1.4266    0.8564   -0.8415 O   0  0  0  0  0  0  0  0  0  0  0  0
    1.5041    2.1360    2.7202 C   0  0  0  0  0  0  0  0  0  0  0  0
    0.7042    4.8139    2.9575 O   0  0  0  0  0  0  0  0  0  0  0  0
   -6.4688    2.7197   -1.0190 C   0  0  0  0  0  0  0  0  0  0  0  0
   -4.8883   -0.1695    0.3833 O   0  0  0  0  0  0  0  0  0  0  0  0
   -7.4277    0.3221   -0.6744 O   0  0  0  0  0  0  0  0  0  0  0  0
   -6.5903   -2.1000   -0.4134 O   0  0  0  0  0  0  0  0  0  0  0  0
   -5.7228   -4.0545   -1.3092 O   0  0  0  0  0  0  0  0  0  0  0  0
   -2.5163   -5.5707   -0.0862 O   0  0  0  0  0  0  0  0  0  0  0  0
   -1.3108   -4.3205    1.3993 O   0  0  0  0  0  0  0  0  0  0  0  0
    2.2633   -3.6371    1.1195 O   0  0  0  0  0  0  0  0  0  0  0  0
    4.3352   -1.5909   -0.2107 O   0  0  0  0  0  0  0  0  0  0  0  0
    4.2260    1.3238   -1.9528 O   0  0  0  0  0  0  0  0  0  0  0  0
    9.1976   -3.1542   -0.0116 H   0  0  0  0  0  0  0  0  0  0  0  0
    9.3235   -2.5380    1.6511 H   0  0  0  0  0  0  0  0  0  0  0  0
    9.9698   -1.5335    0.2841 H   0  0  0  0  0  0  0  0  0  0  0  0
    7.0589   -2.1930    1.0275 H   0  0  0  0  0  0  0  0  0  0  0  0
    7.5690   -1.6155   -0.6196 H   0  0  0  0  0  0  0  0  0  0  0  0
    8.6455    0.3827    0.4287 H   0  0  0  0  0  0  0  0  0  0  0  0
    8.0938   -0.1975    2.0370 H   0  0  0  0  0  0  0  0  0  0  0  0
    5.8006   -0.0318    1.5420 H   0  0  0  0  0  0  0  0  0  0  0  0
    6.6063    1.5540    1.3117 H   0  0  0  0  0  0  0  0  0  0  0  0
    6.0123   -0.3848   -0.9947 H   0  0  0  0  0  0  0  0  0  0  0  0
    6.6930    1.2244   -1.1081 H   0  0  0  0  0  0  0  0  0  0  0  0
    4.7599    2.3309   -0.2763 H   0  0  0  0  0  0  0  0  0  0  0  0
    3.7882    0.7800    1.3007 H   0  0  0  0  0  0  0  0  0  0  0  0
    2.6908   -0.8429   -1.1206 H   0  0  0  0  0  0  0  0  0  0  0  0
    2.7168   -1.4408    1.8886 H   0  0  0  0  0  0  0  0  0  0  0  0
    1.4537   -0.5412    0.9955 H   0  0  0  0  0  0  0  0  0  0  0  0
    1.7816   -2.7483   -0.6996 H   0  0  0  0  0  0  0  0  0  0  0  0
   -0.3448   -1.8354    0.2145 H   0  0  0  0  0  0  0  0  0  0  0  0
    0.1434   -2.4503    1.8746 H   0  0  0  0  0  0  0  0  0  0  0  0
    0.3710   -4.7095    0.3460 H   0  0  0  0  0  0  0  0  0  0  0  0
   -1.2212   -2.7666   -1.2235 H   0  0  0  0  0  0  0  0  0  0  0  0
   -0.4881   -4.2814   -1.7734 H   0  0  0  0  0  0  0  0  0  0  0  0
   -2.6489   -4.8794   -2.0012 H   0  0  0  0  0  0  0  0  0  0  0  0
   -3.9584   -3.7535    0.3586 H   0  0  0  0  0  0  0  0  0  0  0  0
   -3.0389   -2.4719   -0.4687 H   0  0  0  0  0  0  0  0  0  0  0  0
   -4.1373   -3.8467   -2.6075 H   0  0  0  0  0  0  0  0  0  0  0  0
   -4.8116   -1.7996   -3.1896 H   0  0  0  0  0  0  0  0  0  0  0  0
   -3.9823   -1.3440   -1.7104 H   0  0  0  0  0  0  0  0  0  0  0  0
   -6.9066   -1.7646   -2.4223 H   0  0  0  0  0  0  0  0  0  0  0  0
   -6.4219    0.4326   -2.4930 H   0  0  0  0  0  0  0  0  0  0  0  0
   -4.2755    0.6419   -1.4591 H   0  0  0  0  0  0  0  0  0  0  0  0
   -4.8881    3.7088    0.7927 H   0  0  0  0  0  0  0  0  0  0  0  0
   -3.5599    1.9694    2.3691 H   0  0  0  0  0  0  0  0  0  0  0  0
   -1.4561    1.4139    1.4144 H   0  0  0  0  0  0  0  0  0  0  0  0
   -1.5565    1.0822   -1.1528 H   0  0  0  0  0  0  0  0  0  0  0  0
   -1.5459    3.0301   -2.3885 H   0  0  0  0  0  0  0  0  0  0  0  0
   -3.3006    4.7250   -1.0631 H   0  0  0  0  0  0  0  0  0  0  0  0
   -2.0246    6.4327   -0.2485 H   0  0  0  0  0  0  0  0  0  0  0  0
    0.4898    6.3733   -0.9826 H   0  0  0  0  0  0  0  0  0  0  0  0
    1.8937    5.4417    0.5272 H   0  0  0  0  0  0  0  0  0  0  0  0
   -0.3352    3.6564    1.6997 H   0  0  0  0  0  0  0  0  0  0  0  0
    2.6446    3.8026    2.0749 H   0  0  0  0  0  0  0  0  0  0  0  0
    2.4724    1.7304    3.1251 H   0  0  0  0  0  0  0  0  0  0  0  0
    0.8211    1.3375    2.3828 H   0  0  0  0  0  0  0  0  0  0  0  0
    0.9985    2.5814    3.6146 H   0  0  0  0  0  0  0  0  0  0  0  0
    1.2708    5.6382    2.8659 H   0  0  0  0  0  0  0  0  0  0  0  0
   -6.2992    3.8209   -1.0984 H   0  0  0  0  0  0  0  0  0  0  0  0
   -7.3936    2.6267   -0.4102 H   0  0  0  0  0  0  0  0  0  0  0  0
   -6.5682    2.3725   -2.0600 H   0  0  0  0  0  0  0  0  0  0  0  0
   -3.9520   -0.4345    0.4589 H   0  0  0  0  0  0  0  0  0  0  0  0
   -7.2003    0.3489    0.2917 H   0  0  0  0  0  0  0  0  0  0  0  0
   -5.7760   -2.2473    0.1247 H   0  0  0  0  0  0  0  0  0  0  0  0
   -5.5287   -4.6505   -0.5313 H   0  0  0  0  0  0  0  0  0  0  0  0
   -2.3218   -6.4390   -0.4969 H   0  0  0  0  0  0  0  0  0  0  0  0
   -1.4258   -3.5721    2.0557 H   0  0  0  0  0  0  0  0  0  0  0  0
    2.9199   -4.0750    0.4993 H   0  0  0  0  0  0  0  0  0  0  0  0
    4.3343   -2.2714   -0.9090 H   0  0  0  0  0  0  0  0  0  0  0  0
    4.7133    0.6322   -2.4826 H   0  0  0  0  0  0  0  0  0  0  0  0
  1  2  1  0
  2  3  1  0
  3  4  1  0
  4  5  1  0
  5  6  1  0
  7  6  1  0
  7  8  1  0
  8  9  1  0
  9 10  1  0
 10 11  1  0
 11 12  1  0
 12 13  1  0
 13 14  1  0
 14 15  1  0
 15 16  1  0
 16 17  1  0
 17 18  1  0
 18 19  1  0
 19 20  1  0
 20 21  1  0
 21 22  2  0
 22 23  1  0
 23 24  2  0
 24 25  1  0
 25 26  2  0
 26 27  1  0
 27 28  2  0
 28 29  1  0
 29 30  2  0
 30 31  1  0
 31 32  1  0
 32 33  1  0
 33 34  1  0
  7 34  1  0
 34 35  2  0
 32 36  1  0
 31 37  1  0
 21 38  1  0
 20 39  1  0
 19 40  1  0
 18 41  1  0
 16 42  1  0
 14 43  1  0
 12 44  1  0
 10 45  1  0
  8 46  1  0
  6 47  1  0
  1 48  1  0
  1 49  1  0
  1 50  1  0
  2 51  1  0
  2 52  1  0
  3 53  1  0
  3 54  1  0
  4 55  1  0
  4 56  1  0
  5 57  1  0
  5 58  1  0
  6 59  1  1
  7 60  1  1
  8 61  1  6
  9 62  1  0
  9 63  1  0
 10 64  1  6
 11 65  1  0
 11 66  1  0
 12 67  1  6
 13 68  1  0
 13 69  1  0
 14 70  1  6
 15 71  1  0
 15 72  1  0
 16 73  1  6
 17 74  1  0
 17 75  1  0
 18 76  1  6
 19 77  1  6
 20 78  1  6
 22 79  1  0
 23 80  1  0
 24 81  1  0
 25 82  1  0
 26 83  1  0
 27 84  1  0
 28 85  1  0
 29 86  1  0
 30 87  1  0
 31 88  1  6
 32 89  1  1
 36 90  1  0
 36 91  1  0
 36 92  1  0
 37 93  1  0
 38 94  1  0
 38 95  1  0
 38 96  1  0
 39 97  1  0
 40 98  1  0
 41 99  1  0
 42100  1  0
 43101  1  0
 44102  1  0
 45103  1  0
 46104  1  0
 47105  1  0
M  END

