404770286
     RDKit          3D

 85 89  0  0  1  0  0  0  0  0999 V2000
   -1.1444   -0.4003    0.3613 C   0  0  0  0  0  0  0  0  0  0  0  0
   -1.3750   -1.6419   -0.4696 C   0  0  0  0  0  0  0  0  0  0  0  0
   -2.3173   -2.5695    0.0467 N   0  0  0  0  0  0  0  0  0  0  0  0
   -3.4085   -2.1533    0.8802 C   0  0  1  0  0  0  0  0  0  0  0  0
   -3.4506   -0.6837    1.0913 C   0  0  0  0  0  0  0  0  0  0  0  0
   -2.4555    0.1931    0.5170 N   0  0  0  0  0  0  0  0  0  0  0  0
    9.3988   -0.2678   -0.4058 C   0  0  0  0  0  0  0  0  0  0  0  0
    9.2664   -1.1438   -1.4702 C   0  0  0  0  0  0  0  0  0  0  0  0
    8.3074   -0.8684   -2.4174 C   0  0  0  0  0  0  0  0  0  0  0  0
    7.5006    0.2357   -2.3236 C   0  0  0  0  0  0  0  0  0  0  0  0
    7.6333    1.1019   -1.2691 C   0  0  0  0  0  0  0  0  0  0  0  0
    8.5955    0.8450   -0.2985 C   0  0  0  0  0  0  0  0  0  0  0  0
    6.8603    2.2372   -1.1005 O   0  0  0  0  0  0  0  0  0  0  0  0
    5.6656    2.1262   -0.4024 C   0  0  0  0  0  0  0  0  0  0  0  0
    4.8541    3.2165   -0.1622 C   0  0  0  0  0  0  0  0  0  0  0  0
    3.6779    3.0659    0.5329 C   0  0  0  0  0  0  0  0  0  0  0  0
    3.2593    1.8444    1.0142 C   0  0  0  0  0  0  0  0  0  0  0  0
    4.0876    0.7687    0.7615 C   0  0  0  0  0  0  0  0  0  0  0  0
    5.2674    0.9040    0.0676 C   0  0  0  0  0  0  0  0  0  0  0  0
    1.9808    1.6868    1.7747 C   0  0  0  0  0  0  0  0  0  0  0  0
    1.4851    0.3264    1.4926 N   0  0  0  0  0  0  0  0  0  0  0  0
    0.2620    0.2077    2.2614 C   0  0  0  0  0  0  0  0  0  0  0  0
   -0.5356   -0.8928    1.6365 C   0  0  0  0  0  0  0  0  0  0  0  0
   -0.1501    0.4424   -0.3511 C   0  0  0  0  0  0  0  0  0  0  0  0
    1.2744    0.2270    0.0738 C   0  0  0  0  0  0  0  0  0  0  0  0
   -0.7608   -1.8296   -1.5539 O   0  0  0  0  0  0  0  0  0  0  0  0
   -4.3661   -0.1984    1.7804 O   0  0  0  0  0  0  0  0  0  0  0  0
   -4.7328   -2.6259    0.3337 C   0  0  1  0  0  0  0  0  0  0  0  0
   -4.9767   -2.2832   -1.1110 C   0  0  0  0  0  0  0  0  0  0  0  0
   -2.8294    1.5207    0.1602 C   0  0  0  0  0  0  0  0  0  0  0  0
   -2.6466    2.5957    1.1538 C   0  0  0  0  0  0  0  0  0  0  0  0
   -3.3488    2.4747    2.4554 C   0  0  0  0  0  0  0  0  0  0  0  0
   -2.9772    3.7446    3.2520 C   0  0  0  0  0  0  0  0  0  0  0  0
   -4.6252   -4.0569    0.3652 O   0  0  0  0  0  0  0  0  0  0  0  0
   -4.9833   -0.8194   -1.4331 C   0  0  0  0  0  0  0  0  0  0  0  0
   -5.8368   -0.5490   -2.6892 C   0  0  0  0  0  0  0  0  0  0  0  0
   -7.2594   -0.7061   -2.2503 C   0  0  0  0  0  0  0  0  0  0  0  0
   -7.3590   -1.7471   -1.1428 C   0  0  0  0  0  0  0  0  0  0  0  0
   -6.3542   -2.8330   -1.4584 C   0  0  0  0  0  0  0  0  0  0  0  0
   10.1097   -2.3231   -1.5971 C   0  0  0  0  0  0  0  0  0  0  0  0
   11.0664   -2.5791   -0.6435 O   0  0  0  0  0  0  0  0  0  0  0  0
    9.9634   -3.0891   -2.5595 O   0  0  0  0  0  0  0  0  0  0  0  0
   -2.2078   -3.5741   -0.1925 H   0  0  0  0  0  0  0  0  0  0  0  0
   -3.3544   -2.6793    1.8964 H   0  0  0  0  0  0  0  0  0  0  0  0
   10.1635   -0.4980    0.3393 H   0  0  0  0  0  0  0  0  0  0  0  0
    8.2203   -1.5624   -3.2378 H   0  0  0  0  0  0  0  0  0  0  0  0
    6.7482    0.4431   -3.0756 H   0  0  0  0  0  0  0  0  0  0  0  0
    8.6987    1.5424    0.5464 H   0  0  0  0  0  0  0  0  0  0  0  0
    5.1537    4.1888   -0.5261 H   0  0  0  0  0  0  0  0  0  0  0  0
    3.0208    3.9244    0.7322 H   0  0  0  0  0  0  0  0  0  0  0  0
    3.7441   -0.2000    1.1496 H   0  0  0  0  0  0  0  0  0  0  0  0
    5.8727   -0.0014   -0.0932 H   0  0  0  0  0  0  0  0  0  0  0  0
    1.2383    2.4550    1.4750 H   0  0  0  0  0  0  0  0  0  0  0  0
    2.1889    1.8149    2.8432 H   0  0  0  0  0  0  0  0  0  0  0  0
   -0.2704    1.1533    2.3973 H   0  0  0  0  0  0  0  0  0  0  0  0
    0.5624   -0.1412    3.2752 H   0  0  0  0  0  0  0  0  0  0  0  0
   -1.2605   -1.3590    2.3254 H   0  0  0  0  0  0  0  0  0  0  0  0
    0.1872   -1.7048    1.3643 H   0  0  0  0  0  0  0  0  0  0  0  0
   -0.3475    1.5353   -0.2636 H   0  0  0  0  0  0  0  0  0  0  0  0
   -0.2085    0.2144   -1.4353 H   0  0  0  0  0  0  0  0  0  0  0  0
    1.9454    0.9529   -0.4237 H   0  0  0  0  0  0  0  0  0  0  0  0
    1.6185   -0.7807   -0.2392 H   0  0  0  0  0  0  0  0  0  0  0  0
   -5.5391   -2.3108    0.9980 H   0  0  0  0  0  0  0  0  0  0  0  0
   -4.2725   -2.8531   -1.7620 H   0  0  0  0  0  0  0  0  0  0  0  0
   -3.9111    1.5882   -0.1714 H   0  0  0  0  0  0  0  0  0  0  0  0
   -2.2975    1.8651   -0.7856 H   0  0  0  0  0  0  0  0  0  0  0  0
   -3.0263    3.5650    0.6960 H   0  0  0  0  0  0  0  0  0  0  0  0
   -1.5745    2.8469    1.3645 H   0  0  0  0  0  0  0  0  0  0  0  0
   -4.4350    2.4614    2.4273 H   0  0  0  0  0  0  0  0  0  0  0  0
   -2.9149    1.6519    3.0938 H   0  0  0  0  0  0  0  0  0  0  0  0
   -3.5286    4.5720    2.7425 H   0  0  0  0  0  0  0  0  0  0  0  0
   -1.8963    3.8708    3.1138 H   0  0  0  0  0  0  0  0  0  0  0  0
   -3.2872    3.6257    4.2997 H   0  0  0  0  0  0  0  0  0  0  0  0
   -4.1612   -4.3252    1.1902 H   0  0  0  0  0  0  0  0  0  0  0  0
   -3.9627   -0.4966   -1.6997 H   0  0  0  0  0  0  0  0  0  0  0  0
   -5.4799   -0.2096   -0.6562 H   0  0  0  0  0  0  0  0  0  0  0  0
   -5.6584    0.5132   -2.9368 H   0  0  0  0  0  0  0  0  0  0  0  0
   -5.5337   -1.1974   -3.5154 H   0  0  0  0  0  0  0  0  0  0  0  0
   -7.5796    0.2725   -1.7856 H   0  0  0  0  0  0  0  0  0  0  0  0
   -7.9617   -0.9348   -3.0520 H   0  0  0  0  0  0  0  0  0  0  0  0
   -7.1457   -1.2640   -0.1670 H   0  0  0  0  0  0  0  0  0  0  0  0
   -8.3917   -2.1674   -1.0877 H   0  0  0  0  0  0  0  0  0  0  0  0
   -6.5588   -3.7635   -0.8855 H   0  0  0  0  0  0  0  0  0  0  0  0
   -6.4376   -3.0997   -2.5313 H   0  0  0  0  0  0  0  0  0  0  0  0
   11.2177   -3.4371   -0.1615 H   0  0  0  0  0  0  0  0  0  0  0  0
 20 21  1  0
 21 22  1  0
 10 11  2  0
  4  5  1  0
 11 12  1  0
  7 12  2  0
 21 25  1  0
 22 23  1  0
  1 23  1  0
  1 24  1  0
 24 25  1  0
  5  6  1  0
  2 26  2  0
 11 13  1  0
  5 27  2  0
  4 28  1  0
 13 14  1  0
 28 29  1  0
  1  2  1  0
  6 30  1  0
 14 15  2  0
 30 31  1  0
  7  8  1  0
 31 32  1  0
 15 16  1  0
 32 33  1  0
  1  6  1  0
 28 34  1  0
 16 17  2  0
 29 35  1  0
  8  9  2  0
 17 18  1  0
  2  3  1  0
 18 19  2  0
 14 19  1  0
 29 39  1  0
 35 36  1  0
 36 37  1  0
 37 38  1  0
 38 39  1  0
  9 10  1  0
 17 20  1  0
  3  4  1  0
 40 41  1  0
 40 42  2  0
  8 40  1  0
  3 43  1  0
  4 44  1  1
  7 45  1  0
  9 46  1  0
 10 47  1  0
 12 48  1  0
 15 49  1  0
 16 50  1  0
 18 51  1  0
 19 52  1  0
 20 53  1  0
 20 54  1  0
 22 55  1  0
 22 56  1  0
 23 57  1  0
 23 58  1  0
 24 59  1  0
 24 60  1  0
 25 61  1  0
 25 62  1  0
 28 63  1  1
 29 64  1  0
 30 65  1  0
 30 66  1  0
 31 67  1  0
 31 68  1  0
 32 69  1  0
 32 70  1  0
 33 71  1  0
 33 72  1  0
 33 73  1  0
 34 74  1  0
 35 75  1  0
 35 76  1  0
 36 77  1  0
 36 78  1  0
 37 79  1  0
 37 80  1  0
 38 81  1  0
 38 82  1  0
 39 83  1  0
 39 84  1  0
 41 85  1  0
M  END

