404772483
     RDKit          3D

 64 70  0  0  1  0  0  0  0  0999 V2000
   -4.6618    0.5822   -2.2710 C   0  0  0  0  0  0  0  0  0  0  0  0
   -3.6837    0.1245   -1.3065 N   0  0  0  0  0  0  0  0  0  0  0  0
   -3.6224   -1.2264   -0.8562 C   0  0  0  0  0  0  0  0  0  0  0  0
   -4.4037   -2.1986   -1.2321 N   0  0  0  0  0  0  0  0  0  0  0  0
   -4.0327   -3.3992   -0.5627 C   0  0  2  0  0  0  0  0  0  0  0  0
   -5.1143   -3.9041    0.3768 C   0  0  0  0  0  0  0  0  0  0  0  0
   -4.2776   -4.5333    1.4704 C   0  0  0  0  0  0  0  0  0  0  0  0
   -3.2804   -3.3972    1.7368 C   0  0  0  0  0  0  0  0  0  0  0  0
   -2.8631   -3.0660    0.3259 C   0  0  2  0  0  0  0  0  0  0  0  0
   -2.6657   -1.6646    0.0842 N   0  0  0  0  0  0  0  0  0  0  0  0
   -1.7365   -0.7160    0.5924 C   0  0  0  0  0  0  0  0  0  0  0  0
   -0.7430   -0.8533    1.4794 N   0  0  0  0  0  0  0  0  0  0  0  0
   -0.1269    0.2979    1.6642 N   0  0  0  0  0  0  0  0  0  0  0  0
    1.0070    0.5354    2.5345 C   0  0  0  0  0  0  0  0  0  0  0  0
    2.2484    0.2314    1.7393 C   0  0  0  0  0  0  0  0  0  0  0  0
    2.9585    1.1745    1.0461 C   0  0  0  0  0  0  0  0  0  0  0  0
    4.0974    0.8022    0.3316 C   0  0  0  0  0  0  0  0  0  0  0  0
    4.5646   -0.4928    0.2796 C   0  0  0  0  0  0  0  0  0  0  0  0
    3.8311   -1.4251    0.9870 C   0  0  0  0  0  0  0  0  0  0  0  0
    2.7082   -1.0855    1.6971 C   0  0  0  0  0  0  0  0  0  0  0  0
    5.7618   -0.8154   -0.4860 C   0  0  0  0  0  0  0  0  0  0  0  0
    6.3834    0.1867   -1.1303 N   0  0  0  0  0  0  0  0  0  0  0  0
    7.4819    0.0635   -1.8691 C   0  0  0  0  0  0  0  0  0  0  0  0
    8.0286    1.1334   -2.4756 F   0  0  0  0  0  0  0  0  0  0  0  0
    8.0536   -1.1857   -2.0036 C   0  0  0  0  0  0  0  0  0  0  0  0
    7.4496   -2.2418   -1.3601 C   0  0  0  0  0  0  0  0  0  0  0  0
    6.2954   -2.0691   -0.5929 C   0  0  0  0  0  0  0  0  0  0  0  0
   -0.7258    1.2522    0.8728 C   0  0  0  0  0  0  0  0  0  0  0  0
   -0.3389    2.5930    0.8405 N   0  0  0  0  0  0  0  0  0  0  0  0
   -0.7529    3.6913    0.0992 C   0  0  0  0  0  0  0  0  0  0  0  0
   -0.2161    3.9597   -1.1334 C   0  0  0  0  0  0  0  0  0  0  0  0
   -0.6232    5.0810   -1.8129 C   0  0  0  0  0  0  0  0  0  0  0  0
   -1.5554    5.9464   -1.2945 C   0  0  0  0  0  0  0  0  0  0  0  0
   -2.1062    5.6908   -0.0538 C   0  0  0  0  0  0  0  0  0  0  0  0
   -1.6880    4.5627    0.6152 C   0  0  0  0  0  0  0  0  0  0  0  0
   -1.7549    0.6237    0.1814 C   0  0  0  0  0  0  0  0  0  0  0  0
   -2.7428    1.0754   -0.7892 C   0  0  0  0  0  0  0  0  0  0  0  0
   -2.7606    2.2583   -1.1520 O   0  0  0  0  0  0  0  0  0  0  0  0
   -5.6015    0.8437   -1.7522 H   0  0  0  0  0  0  0  0  0  0  0  0
   -4.8117   -0.2120   -3.0394 H   0  0  0  0  0  0  0  0  0  0  0  0
   -4.2836    1.4988   -2.7633 H   0  0  0  0  0  0  0  0  0  0  0  0
   -3.7777   -4.2337   -1.2520 H   0  0  0  0  0  0  0  0  0  0  0  0
   -5.7784   -4.6409   -0.1148 H   0  0  0  0  0  0  0  0  0  0  0  0
   -5.6467   -3.0343    0.7792 H   0  0  0  0  0  0  0  0  0  0  0  0
   -3.6893   -5.3587    1.0248 H   0  0  0  0  0  0  0  0  0  0  0  0
   -4.8440   -4.8042    2.3574 H   0  0  0  0  0  0  0  0  0  0  0  0
   -2.4543   -3.7215    2.3747 H   0  0  0  0  0  0  0  0  0  0  0  0
   -3.8827   -2.5730    2.1668 H   0  0  0  0  0  0  0  0  0  0  0  0
   -1.9666   -3.6760    0.0903 H   0  0  0  0  0  0  0  0  0  0  0  0
    0.9729   -0.1412    3.4271 H   0  0  0  0  0  0  0  0  0  0  0  0
    1.0764    1.5516    2.9217 H   0  0  0  0  0  0  0  0  0  0  0  0
    2.6458    2.1923    1.0526 H   0  0  0  0  0  0  0  0  0  0  0  0
    4.6592    1.5553   -0.2184 H   0  0  0  0  0  0  0  0  0  0  0  0
    4.1849   -2.4617    0.9595 H   0  0  0  0  0  0  0  0  0  0  0  0
    2.1812   -1.8599    2.2275 H   0  0  0  0  0  0  0  0  0  0  0  0
    8.9416   -1.3556   -2.5861 H   0  0  0  0  0  0  0  0  0  0  0  0
    7.8849   -3.2432   -1.4519 H   0  0  0  0  0  0  0  0  0  0  0  0
    5.8357   -2.8989   -0.0977 H   0  0  0  0  0  0  0  0  0  0  0  0
    0.4506    2.8780    1.5450 H   0  0  0  0  0  0  0  0  0  0  0  0
    0.5196    3.2619   -1.5243 H   0  0  0  0  0  0  0  0  0  0  0  0
   -0.1731    5.2645   -2.7958 H   0  0  0  0  0  0  0  0  0  0  0  0
   -1.8597    6.8242   -1.8508 H   0  0  0  0  0  0  0  0  0  0  0  0
   -2.8474    6.3762    0.3615 H   0  0  0  0  0  0  0  0  0  0  0  0
   -2.1289    4.3762    1.5862 H   0  0  0  0  0  0  0  0  0  0  0  0
  1  2  1  0
  2  3  1  0
  3  4  2  0
  5  4  1  0
  5  6  1  0
  6  7  1  0
  7  8  1  0
  8  9  1  0
  5  9  1  0
  9 10  1  0
  3 10  1  0
 10 11  1  0
 11 12  2  0
 12 13  1  0
 13 14  1  0
 14 15  1  0
 15 16  2  0
 16 17  1  0
 17 18  2  0
 18 19  1  0
 19 20  2  0
 15 20  1  0
 18 21  1  0
 21 22  2  0
 22 23  1  0
 23 24  1  0
 23 25  2  0
 25 26  1  0
 26 27  2  0
 21 27  1  0
 13 28  1  0
 28 29  1  0
 29 30  1  0
 30 31  2  0
 31 32  1  0
 32 33  2  0
 33 34  1  0
 34 35  2  0
 30 35  1  0
 28 36  2  0
 11 36  1  0
 36 37  1  0
  2 37  1  0
 37 38  2  0
  1 39  1  0
  1 40  1  0
  1 41  1  0
  5 42  1  6
  6 43  1  0
  6 44  1  0
  7 45  1  0
  7 46  1  0
  8 47  1  0
  8 48  1  0
  9 49  1  6
 14 50  1  0
 14 51  1  0
 16 52  1  0
 17 53  1  0
 19 54  1  0
 20 55  1  0
 25 56  1  0
 26 57  1  0
 27 58  1  0
 29 59  1  0
 31 60  1  0
 32 61  1  0
 33 62  1  0
 34 63  1  0
 35 64  1  0
M  END

