404772631
     RDKit          3D

 50 51  0  0  1  0  0  0  0  0999 V2000
   -1.1747    0.6709   -3.8851 C   0  0  0  0  0  0  0  0  0  0  0  0
   -0.3963    0.8349   -2.5932 C   0  0  0  0  0  0  0  0  0  0  0  0
   -1.0173    0.0886   -1.4828 C   0  0  0  0  0  0  0  0  0  0  0  0
   -2.0254   -0.5322   -1.7146 O   0  0  0  0  0  0  0  0  0  0  0  0
   -0.4549    0.0739   -0.0970 C   0  0  0  0  0  0  0  0  0  0  0  0
    1.0104   -0.1121   -0.0506 C   0  0  0  0  0  0  0  0  0  0  0  0
    1.6022   -1.3429   -0.6180 C   0  0  2  0  0  0  0  0  0  0  0  0
    1.1635   -2.6412    0.0178 C   0  0  0  0  0  0  0  0  0  0  0  0
    3.0474   -1.2642   -0.4412 N   0  0  0  0  0  0  0  0  0  0  0  0
    3.4520   -1.2183    0.9240 C   0  0  0  0  0  0  0  0  0  0  0  0
    3.6550   -0.2899   -1.2908 C   0  0  0  0  0  0  0  0  0  0  0  0
   -1.2368   -0.7468    0.8515 C   0  0  0  0  0  0  0  0  0  0  0  0
   -1.3541   -0.3073    2.1890 C   0  0  0  0  0  0  0  0  0  0  0  0
   -2.0578   -1.0163    3.1307 C   0  0  0  0  0  0  0  0  0  0  0  0
   -2.6642   -2.1929    2.7443 C   0  0  0  0  0  0  0  0  0  0  0  0
   -2.5524   -2.6211    1.4515 C   0  0  0  0  0  0  0  0  0  0  0  0
   -1.8420   -1.9058    0.5021 C   0  0  0  0  0  0  0  0  0  0  0  0
   -0.7364    1.5038    0.3531 C   0  0  0  0  0  0  0  0  0  0  0  0
   -2.0353    1.9274    0.2036 C   0  0  0  0  0  0  0  0  0  0  0  0
   -2.3658    3.2274    0.5958 C   0  0  0  0  0  0  0  0  0  0  0  0
   -1.3774    4.0338    1.1167 C   0  0  0  0  0  0  0  0  0  0  0  0
   -0.0922    3.5765    1.2508 C   0  0  0  0  0  0  0  0  0  0  0  0
    0.2307    2.2863    0.8605 C   0  0  0  0  0  0  0  0  0  0  0  0
   -2.2765    0.7160   -3.6889 H   0  0  0  0  0  0  0  0  0  0  0  0
   -0.9881   -0.3251   -4.3526 H   0  0  0  0  0  0  0  0  0  0  0  0
   -0.9248    1.4417   -4.6222 H   0  0  0  0  0  0  0  0  0  0  0  0
   -0.3786    1.9269   -2.3914 H   0  0  0  0  0  0  0  0  0  0  0  0
    0.6146    0.4333   -2.7693 H   0  0  0  0  0  0  0  0  0  0  0  0
    1.3510   -0.0271    1.0078 H   0  0  0  0  0  0  0  0  0  0  0  0
    1.4881    0.7526   -0.5978 H   0  0  0  0  0  0  0  0  0  0  0  0
    1.4510   -1.4851   -1.7108 H   0  0  0  0  0  0  0  0  0  0  0  0
    0.8804   -2.5407    1.0798 H   0  0  0  0  0  0  0  0  0  0  0  0
    0.4386   -3.2079   -0.6051 H   0  0  0  0  0  0  0  0  0  0  0  0
    2.0580   -3.3458    0.0554 H   0  0  0  0  0  0  0  0  0  0  0  0
    2.6833   -1.5731    1.6347 H   0  0  0  0  0  0  0  0  0  0  0  0
    3.7204   -0.1772    1.2620 H   0  0  0  0  0  0  0  0  0  0  0  0
    4.3403   -1.8872    1.0631 H   0  0  0  0  0  0  0  0  0  0  0  0
    3.3709   -0.5039   -2.3371 H   0  0  0  0  0  0  0  0  0  0  0  0
    4.7660   -0.4563   -1.2347 H   0  0  0  0  0  0  0  0  0  0  0  0
    3.4958    0.7576   -0.9866 H   0  0  0  0  0  0  0  0  0  0  0  0
   -0.8629    0.6213    2.4510 H   0  0  0  0  0  0  0  0  0  0  0  0
   -2.1505   -0.6799    4.1632 H   0  0  0  0  0  0  0  0  0  0  0  0
   -3.2295   -2.7626    3.4983 H   0  0  0  0  0  0  0  0  0  0  0  0
   -3.0345   -3.5515    1.1555 H   0  0  0  0  0  0  0  0  0  0  0  0
   -1.7815   -2.3089   -0.4775 H   0  0  0  0  0  0  0  0  0  0  0  0
   -2.8003    1.2945   -0.2028 H   0  0  0  0  0  0  0  0  0  0  0  0
   -3.3668    3.6162    0.5034 H   0  0  0  0  0  0  0  0  0  0  0  0
   -1.6210    5.0671    1.4326 H   0  0  0  0  0  0  0  0  0  0  0  0
    0.7017    4.2135    1.6656 H   0  0  0  0  0  0  0  0  0  0  0  0
    1.2763    1.9590    0.9863 H   0  0  0  0  0  0  0  0  0  0  0  0
  1  2  1  0
  2  3  1  0
  3  4  2  0
  3  5  1  0
  5  6  1  0
  6  7  1  0
  7  8  1  0
  7  9  1  0
  9 10  1  0
  9 11  1  0
  5 12  1  0
 12 13  2  0
 13 14  1  0
 14 15  2  0
 15 16  1  0
 16 17  2  0
 12 17  1  0
  5 18  1  0
 18 19  2  0
 19 20  1  0
 20 21  2  0
 21 22  1  0
 22 23  2  0
 18 23  1  0
  1 24  1  0
  1 25  1  0
  1 26  1  0
  2 27  1  0
  2 28  1  0
  6 29  1  0
  6 30  1  0
  7 31  1  6
  8 32  1  0
  8 33  1  0
  8 34  1  0
 10 35  1  0
 10 36  1  0
 10 37  1  0
 11 38  1  0
 11 39  1  0
 11 40  1  0
 13 41  1  0
 14 42  1  0
 15 43  1  0
 16 44  1  0
 17 45  1  0
 19 46  1  0
 20 47  1  0
 21 48  1  0
 22 49  1  0
 23 50  1  0
M  END

