404772439
     RDKit          3D

 45 48  0  0  0  0  0  0  0  0999 V2000
   -4.1923    1.0295    2.4913 C   0  0  0  0  0  0  0  0  0  0  0  0
   -3.7615    1.5325    1.1337 C   0  0  0  0  0  0  0  0  0  0  0  0
   -3.5737    0.7318   -0.0184 C   0  0  0  0  0  0  0  0  0  0  0  0
   -3.1890    1.5981   -1.0186 C   0  0  0  0  0  0  0  0  0  0  0  0
   -3.1558    2.8680   -0.4639 C   0  0  0  0  0  0  0  0  0  0  0  0
   -3.4978    2.7466    0.7818 O   0  0  0  0  0  0  0  0  0  0  0  0
   -3.8072   -0.6884   -0.0186 C   0  0  0  0  0  0  0  0  0  0  0  0
   -4.9572   -1.0582    0.3837 O   0  0  0  0  0  0  0  0  0  0  0  0
   -2.8867   -1.6388   -0.4129 N   0  0  0  0  0  0  0  0  0  0  0  0
   -1.5574   -1.4188   -0.8823 C   0  0  0  0  0  0  0  0  0  0  0  0
   -0.9284   -0.2765   -1.0099 N   0  0  0  0  0  0  0  0  0  0  0  0
    0.3327   -0.4290   -1.4642 N   0  0  0  0  0  0  0  0  0  0  0  0
    1.2815    0.6346   -1.7186 C   0  0  0  0  0  0  0  0  0  0  0  0
    2.0952    1.0054   -0.5691 C   0  0  0  0  0  0  0  0  0  0  0  0
    3.3595    0.5323   -0.3852 C   0  0  0  0  0  0  0  0  0  0  0  0
    4.1500    0.8718    0.6830 C   0  0  0  0  0  0  0  0  0  0  0  0
    3.6558    1.7540    1.6558 C   0  0  0  0  0  0  0  0  0  0  0  0
    2.3810    2.2401    1.4877 C   0  0  0  0  0  0  0  0  0  0  0  0
    1.6063    1.8755    0.3950 C   0  0  0  0  0  0  0  0  0  0  0  0
    4.5086    2.1371    2.8221 C   0  0  0  0  0  0  0  0  0  0  0  0
    5.3996    1.1153    3.0271 F   0  0  0  0  0  0  0  0  0  0  0  0
    5.2699    3.2826    2.5166 F   0  0  0  0  0  0  0  0  0  0  0  0
    3.7842    2.4522    3.9449 F   0  0  0  0  0  0  0  0  0  0  0  0
    0.4867   -1.7639   -1.6245 C   0  0  0  0  0  0  0  0  0  0  0  0
    1.5498   -2.5559   -2.0501 C   0  0  0  0  0  0  0  0  0  0  0  0
    1.4549   -3.9143   -2.1208 C   0  0  0  0  0  0  0  0  0  0  0  0
    0.2778   -4.5740   -1.7650 C   0  0  0  0  0  0  0  0  0  0  0  0
   -0.7798   -3.7913   -1.3403 C   0  0  0  0  0  0  0  0  0  0  0  0
   -0.6715   -2.4191   -1.2743 C   0  0  0  0  0  0  0  0  0  0  0  0
   -5.2982    0.8146    2.5185 H   0  0  0  0  0  0  0  0  0  0  0  0
   -3.6292    0.1290    2.7158 H   0  0  0  0  0  0  0  0  0  0  0  0
   -4.0214    1.8245    3.2482 H   0  0  0  0  0  0  0  0  0  0  0  0
   -2.9605    1.3141   -2.0679 H   0  0  0  0  0  0  0  0  0  0  0  0
   -2.8803    3.7819   -1.0237 H   0  0  0  0  0  0  0  0  0  0  0  0
   -3.2241   -2.6664   -0.3443 H   0  0  0  0  0  0  0  0  0  0  0  0
    1.8901    0.3227   -2.6014 H   0  0  0  0  0  0  0  0  0  0  0  0
    0.6864    1.5130   -2.1056 H   0  0  0  0  0  0  0  0  0  0  0  0
    3.7648   -0.1531   -1.1171 H   0  0  0  0  0  0  0  0  0  0  0  0
    5.1621    0.4901    0.8258 H   0  0  0  0  0  0  0  0  0  0  0  0
    2.0026    2.9124    2.2329 H   0  0  0  0  0  0  0  0  0  0  0  0
    0.5966    2.2718    0.2927 H   0  0  0  0  0  0  0  0  0  0  0  0
    2.4473   -1.9833   -2.3091 H   0  0  0  0  0  0  0  0  0  0  0  0
    2.3294   -4.4748   -2.4607 H   0  0  0  0  0  0  0  0  0  0  0  0
    0.2033   -5.6661   -1.8072 H   0  0  0  0  0  0  0  0  0  0  0  0
   -1.7042   -4.3094   -1.0560 H   0  0  0  0  0  0  0  0  0  0  0  0
  1  2  1  0
  2  3  2  0
  3  4  1  0
  4  5  2  0
  5  6  1  0
  2  6  1  0
  3  7  1  0
  7  8  2  0
  7  9  1  0
  9 10  1  0
 10 11  2  0
 11 12  1  0
 12 13  1  0
 13 14  1  0
 14 15  2  0
 15 16  1  0
 16 17  2  0
 17 18  1  0
 18 19  2  0
 14 19  1  0
 17 20  1  0
 20 21  1  0
 20 22  1  0
 20 23  1  0
 12 24  1  0
 24 25  2  0
 25 26  1  0
 26 27  2  0
 27 28  1  0
 28 29  2  0
 10 29  1  0
 24 29  1  0
  1 30  1  0
  1 31  1  0
  1 32  1  0
  4 33  1  0
  5 34  1  0
  9 35  1  0
 13 36  1  0
 13 37  1  0
 15 38  1  0
 16 39  1  0
 18 40  1  0
 19 41  1  0
 25 42  1  0
 26 43  1  0
 27 44  1  0
 28 45  1  0
M  END

