404771603
     RDKit          3D

 15 15  0  0  0  0  0  0  0  0999 V2000
    0.4438   -0.9970   -0.6482 C   0  0  0  0  0  0  0  0  0  0  0  0
    0.4452    1.1295    0.3589 C   0  0  0  0  0  0  0  0  0  0  0  0
   -0.9114   -1.1361   -0.3731 C   0  0  0  0  0  0  0  0  0  0  0  0
   -0.9108    0.9952    0.6365 C   0  0  0  0  0  0  0  0  0  0  0  0
    1.1479    0.1340   -0.2896 C   0  0  0  0  0  0  0  0  0  0  0  0
   -1.6090   -0.1385    0.2751 C   0  0  0  0  0  0  0  0  0  0  0  0
    2.5270    0.2829   -0.5660 N   0  0  0  0  0  0  0  0  0  0  0  0
   -2.9679   -0.2543    0.5622 O   0  0  0  0  0  0  0  0  0  0  0  0
    0.9726   -1.7760   -1.1504 H   0  0  0  0  0  0  0  0  0  0  0  0
    0.9823    2.0194    0.6454 H   0  0  0  0  0  0  0  0  0  0  0  0
   -1.4636   -2.0285   -0.6569 H   0  0  0  0  0  0  0  0  0  0  0  0
   -1.4717    1.7684    1.1440 H   0  0  0  0  0  0  0  0  0  0  0  0
    3.1768    0.8536    0.0178 H   0  0  0  0  0  0  0  0  0  0  0  0
    2.9498   -0.1918   -1.3933 H   0  0  0  0  0  0  0  0  0  0  0  0
   -3.3111   -0.6609    1.4375 H   0  0  0  0  0  0  0  0  0  0  0  0
  1  3  2  0
  2  4  1  0
  1  5  1  0
  2  5  2  0
  3  6  1  0
  4  6  2  0
  5  7  1  0
  6  8  1  0
  1  9  1  0
  2 10  1  0
  3 11  1  0
  4 12  1  0
  7 13  1  0
  7 14  1  0
  8 15  1  0
M  END

