404771489
     RDKit          3D

 28 29  0  0  1  0  0  0  0  0999 V2000
   -0.8068   -0.9662   -1.0671 C   0  0  0  0  0  0  0  0  0  0  0  0
    0.4986   -1.5744   -0.7467 C   0  0  0  0  0  0  0  0  0  0  0  0
   -1.1982   -0.9776   -2.2893 O   0  0  0  0  0  0  0  0  0  0  0  0
    0.9586   -2.2225   -1.9348 O   0  0  0  0  0  0  0  0  0  0  0  0
   -1.6900   -0.3551   -0.1199 C   0  0  0  0  0  0  0  0  0  0  0  0
   -2.8843    0.2397   -0.5443 C   0  0  0  0  0  0  0  0  0  0  0  0
   -1.4803   -0.3014    1.2340 C   0  0  0  0  0  0  0  0  0  0  0  0
   -3.7775    0.8308    0.3188 C   0  0  0  0  0  0  0  0  0  0  0  0
   -2.3484    0.2812    2.1352 C   0  0  0  0  0  0  0  0  0  0  0  0
   -3.5102    0.8532    1.6680 C   0  0  0  0  0  0  0  0  0  0  0  0
    1.5426   -0.5580   -0.4677 C   0  0  0  0  0  0  0  0  0  0  0  0
    1.9662    0.3042   -1.4456 C   0  0  0  0  0  0  0  0  0  0  0  0
    2.1167   -0.4719    0.7677 C   0  0  0  0  0  0  0  0  0  0  0  0
    2.9674    1.2409   -1.1514 C   0  0  0  0  0  0  0  0  0  0  0  0
    3.0986    0.4286    1.0993 C   0  0  0  0  0  0  0  0  0  0  0  0
    3.5193    1.2932    0.1087 C   0  0  0  0  0  0  0  0  0  0  0  0
    0.4646   -2.3679    0.0175 H   0  0  0  0  0  0  0  0  0  0  0  0
    0.7740   -1.5711   -2.6572 H   0  0  0  0  0  0  0  0  0  0  0  0
   -3.1256    0.2379   -1.6136 H   0  0  0  0  0  0  0  0  0  0  0  0
   -0.5723   -0.7565    1.6196 H   0  0  0  0  0  0  0  0  0  0  0  0
   -4.6665    1.2644   -0.0718 H   0  0  0  0  0  0  0  0  0  0  0  0
   -2.0943    0.2748    3.1953 H   0  0  0  0  0  0  0  0  0  0  0  0
   -4.2185    1.3233    2.3607 H   0  0  0  0  0  0  0  0  0  0  0  0
    1.5616    0.2993   -2.4484 H   0  0  0  0  0  0  0  0  0  0  0  0
    1.7801   -1.1545    1.5307 H   0  0  0  0  0  0  0  0  0  0  0  0
    3.3100    1.9261   -1.9135 H   0  0  0  0  0  0  0  0  0  0  0  0
    3.5209    0.4557    2.0940 H   0  0  0  0  0  0  0  0  0  0  0  0
    4.2939    2.0241    0.3217 H   0  0  0  0  0  0  0  0  0  0  0  0
  1  2  1  0
  1  3  2  0
  1  5  1  0
  2  4  1  0
  2 11  1  0
  5  6  2  0
  5  7  1  0
  6  8  1  0
  7  9  2  0
  8 10  2  0
  9 10  1  0
 11 12  2  0
 11 13  1  0
 12 14  1  0
 13 15  2  0
 14 16  2  0
 15 16  1  0
  2 17  1  0
  4 18  1  0
  6 19  1  0
  7 20  1  0
  8 21  1  0
  9 22  1  0
 10 23  1  0
 12 24  1  0
 13 25  1  0
 14 26  1  0
 15 27  1  0
 16 28  1  0
M  END

