404770398
     RDKit          3D

 80 81  0  0  1  0  0  0  0  0999 V2000
   -7.3495    2.6970    2.6051 O   0  0  0  0  0  0  0  0  0  0  0  0
   -6.5447    2.6920    1.4927 C   0  0  0  0  0  0  0  0  0  0  0  0
   -6.3349    1.4321    0.7078 C   0  0  1  0  0  0  0  0  0  0  0  0
   -5.9973    3.7933    1.1832 O   0  0  0  0  0  0  0  0  0  0  0  0
   -7.4985    1.0136   -0.1112 C   0  0  0  0  0  0  0  0  0  0  0  0
   -5.2952    1.8213   -0.2758 N   0  0  0  0  0  0  0  0  0  0  0  0
   -8.7906    0.7223    0.5421 C   0  0  0  0  0  0  0  0  0  0  0  0
   -8.7361   -0.3774    1.5805 C   0  0  0  0  0  0  0  0  0  0  0  0
   -9.5980    1.8583    1.0441 C   0  0  0  0  0  0  0  0  0  0  0  0
   -3.9632    1.4569   -0.0883 C   0  0  0  0  0  0  0  0  0  0  0  0
   -2.9501    1.8655   -1.0833 C   0  0  2  0  0  0  0  0  0  0  0  0
   -3.5992    0.7924    0.9054 O   0  0  0  0  0  0  0  0  0  0  0  0
   -3.1851    1.1653   -2.4191 C   0  0  0  0  0  0  0  0  0  0  0  0
   -1.5993    1.5145   -0.6667 N   0  0  0  0  0  0  0  0  0  0  0  0
   -3.1066   -0.3078   -2.2738 C   0  0  0  0  0  0  0  0  0  0  0  0
   -4.2712   -1.0088   -1.9766 C   0  0  0  0  0  0  0  0  0  0  0  0
   -1.9546   -1.0400   -2.4138 C   0  0  0  0  0  0  0  0  0  0  0  0
   -1.9478   -2.4266   -2.2641 C   0  0  0  0  0  0  0  0  0  0  0  0
   -4.3027   -2.3845   -1.8205 C   0  0  0  0  0  0  0  0  0  0  0  0
   -3.1165   -3.0956   -1.9685 C   0  0  0  0  0  0  0  0  0  0  0  0
   -0.6422    2.5086   -0.5256 C   0  0  0  0  0  0  0  0  0  0  0  0
   -0.9988    3.7185   -0.7799 O   0  0  0  0  0  0  0  0  0  0  0  0
    0.7369    2.3206   -0.1153 C   0  0  0  0  0  0  0  0  0  0  0  0
    1.0942    0.9752    0.1558 N   0  0  0  0  0  0  0  0  0  0  0  0
    2.4372    0.6931    0.5864 C   0  0  0  0  0  0  0  0  0  0  0  0
    3.2350    1.6439    0.7071 O   0  0  0  0  0  0  0  0  0  0  0  0
    2.8274   -0.7306    0.8738 C   0  0  2  0  0  0  0  0  0  0  0  0
    4.1885   -0.8276    1.2984 N   0  0  0  0  0  0  0  0  0  0  0  0
    2.6126   -1.6308   -0.3068 C   0  0  0  0  0  0  0  0  0  0  0  0
    5.2382   -0.3140    0.5002 C   0  0  0  0  0  0  0  0  0  0  0  0
    6.6657   -0.3860    0.9115 C   0  0  2  0  0  0  0  0  0  0  0  0
    4.9624    0.2260   -0.5959 O   0  0  0  0  0  0  0  0  0  0  0  0
    7.4183   -1.1467   -0.1175 C   0  0  0  0  0  0  0  0  0  0  0  0
    8.8601   -1.2916    0.1745 C   0  0  0  0  0  0  0  0  0  0  0  0
    6.7124   -1.0724    2.1929 N   0  0  0  0  0  0  0  0  0  0  0  0
   11.4964   -1.7149    0.8056 C   0  0  0  0  0  0  0  0  0  0  0  0
    9.8065   -0.3837   -0.2569 C   0  0  0  0  0  0  0  0  0  0  0  0
    9.2398   -2.3956    0.9124 C   0  0  0  0  0  0  0  0  0  0  0  0
   11.1255   -0.6175    0.0722 C   0  0  0  0  0  0  0  0  0  0  0  0
   10.5637   -2.6273    1.2411 C   0  0  0  0  0  0  0  0  0  0  0  0
   12.8466   -1.9168    1.1201 O   0  0  0  0  0  0  0  0  0  0  0  0
   -7.1351    3.1261    3.4870 H   0  0  0  0  0  0  0  0  0  0  0  0
   -5.8879    0.6685    1.3443 H   0  0  0  0  0  0  0  0  0  0  0  0
   -7.5918    1.7639   -0.9436 H   0  0  0  0  0  0  0  0  0  0  0  0
   -7.1892    0.0652   -0.6561 H   0  0  0  0  0  0  0  0  0  0  0  0
   -5.5982    2.3669   -1.0927 H   0  0  0  0  0  0  0  0  0  0  0  0
   -9.4343    0.2460   -0.2967 H   0  0  0  0  0  0  0  0  0  0  0  0
   -8.6014    0.0503    2.6068 H   0  0  0  0  0  0  0  0  0  0  0  0
   -7.9267   -1.0734    1.3537 H   0  0  0  0  0  0  0  0  0  0  0  0
   -9.7141   -0.9475    1.5712 H   0  0  0  0  0  0  0  0  0  0  0  0
   -9.2549    2.8697    0.7414 H   0  0  0  0  0  0  0  0  0  0  0  0
   -9.8217    1.7619    2.1339 H   0  0  0  0  0  0  0  0  0  0  0  0
  -10.6385    1.7931    0.5834 H   0  0  0  0  0  0  0  0  0  0  0  0
   -2.9590    2.9595   -1.2669 H   0  0  0  0  0  0  0  0  0  0  0  0
   -4.1525    1.4931   -2.8593 H   0  0  0  0  0  0  0  0  0  0  0  0
   -2.3625    1.5146   -3.0808 H   0  0  0  0  0  0  0  0  0  0  0  0
   -1.4149    0.5224   -0.4958 H   0  0  0  0  0  0  0  0  0  0  0  0
   -5.1879   -0.4807   -1.8601 H   0  0  0  0  0  0  0  0  0  0  0  0
   -1.0458   -0.5314   -2.6408 H   0  0  0  0  0  0  0  0  0  0  0  0
   -1.0243   -2.9794   -2.3773 H   0  0  0  0  0  0  0  0  0  0  0  0
   -5.2208   -2.9080   -1.5877 H   0  0  0  0  0  0  0  0  0  0  0  0
   -3.1134   -4.1735   -1.8530 H   0  0  0  0  0  0  0  0  0  0  0  0
    1.4660    2.6727   -0.9192 H   0  0  0  0  0  0  0  0  0  0  0  0
    0.9942    3.0108    0.7410 H   0  0  0  0  0  0  0  0  0  0  0  0
    0.4120    0.2005    0.0489 H   0  0  0  0  0  0  0  0  0  0  0  0
    2.1527   -1.0456    1.7138 H   0  0  0  0  0  0  0  0  0  0  0  0
    4.4274   -1.2814    2.2143 H   0  0  0  0  0  0  0  0  0  0  0  0
    2.3412   -1.0457   -1.2202 H   0  0  0  0  0  0  0  0  0  0  0  0
    1.7785   -2.3541   -0.1691 H   0  0  0  0  0  0  0  0  0  0  0  0
    3.5167   -2.2415   -0.5299 H   0  0  0  0  0  0  0  0  0  0  0  0
    6.9892    0.6716    1.0188 H   0  0  0  0  0  0  0  0  0  0  0  0
    6.9832   -2.1606   -0.2062 H   0  0  0  0  0  0  0  0  0  0  0  0
    7.2892   -0.6796   -1.1176 H   0  0  0  0  0  0  0  0  0  0  0  0
    6.3205   -2.0188    2.1283 H   0  0  0  0  0  0  0  0  0  0  0  0
    6.1991   -0.5431    2.9162 H   0  0  0  0  0  0  0  0  0  0  0  0
    9.4799    0.4526   -0.8199 H   0  0  0  0  0  0  0  0  0  0  0  0
    8.5264   -3.1400    1.2779 H   0  0  0  0  0  0  0  0  0  0  0  0
   11.8595    0.1074   -0.2758 H   0  0  0  0  0  0  0  0  0  0  0  0
   10.8681   -3.4884    1.8193 H   0  0  0  0  0  0  0  0  0  0  0  0
   13.3857   -2.4386    0.4780 H   0  0  0  0  0  0  0  0  0  0  0  0
  1  2  1  0
  2  3  1  0
  2  4  2  0
  3  5  1  0
  3  6  1  0
  5  7  1  0
  6 10  1  0
  7  8  1  0
  7  9  1  0
 10 11  1  0
 10 12  2  0
 11 13  1  0
 11 14  1  0
 13 15  1  0
 14 21  1  0
 15 16  2  0
 15 17  1  0
 16 19  1  0
 17 18  2  0
 18 20  1  0
 19 20  2  0
 21 23  1  0
 21 22  2  0
 23 24  1  0
 24 25  1  0
 25 26  2  0
 25 27  1  0
 27 28  1  0
 27 29  1  0
 28 30  1  0
 30 31  1  0
 30 32  2  0
 31 33  1  0
 31 35  1  0
 33 34  1  0
 34 37  1  0
 34 38  2  0
 36 40  2  0
 36 41  1  0
 36 39  1  0
 37 39  2  0
 38 40  1  0
  1 42  1  0
  3 43  1  1
  5 44  1  0
  5 45  1  0
  6 46  1  0
  7 47  1  0
  8 48  1  0
  8 49  1  0
  8 50  1  0
  9 51  1  0
  9 52  1  0
  9 53  1  0
 11 54  1  6
 13 55  1  0
 13 56  1  0
 14 57  1  0
 16 58  1  0
 17 59  1  0
 18 60  1  0
 19 61  1  0
 20 62  1  0
 23 63  1  0
 23 64  1  0
 24 65  1  0
 27 66  1  1
 28 67  1  0
 29 68  1  0
 29 69  1  0
 29 70  1  0
 31 71  1  1
 33 72  1  0
 33 73  1  0
 35 74  1  0
 35 75  1  0
 37 76  1  0
 38 77  1  0
 39 78  1  0
 40 79  1  0
 41 80  1  0
M  END

