404770332
     RDKit          3D

 68 69  0  0  0  0  0  0  0  0999 V2000
    4.9187   -1.8668   -2.4477 O   0  0  0  0  0  0  0  0  0  0  0  0
    6.1791    0.0831   -2.6239 O   0  0  0  0  0  0  0  0  0  0  0  0
    7.3875    1.9590   -2.8989 O   0  0  0  0  0  0  0  0  0  0  0  0
    5.7624   -0.6924   -0.5152 N   0  0  0  0  0  0  0  0  0  0  0  0
   -2.2505   -2.5138   -0.0964 C   0  0  0  0  0  0  0  0  0  0  0  0
   -3.5503   -1.7822   -0.0624 C   0  0  0  0  0  0  0  0  0  0  0  0
   -1.4094   -2.4860   -1.2796 C   0  0  0  0  0  0  0  0  0  0  0  0
   -3.5211   -0.3147   -0.1849 C   0  0  0  0  0  0  0  0  0  0  0  0
   -0.8489   -1.2453   -1.8313 C   0  0  0  0  0  0  0  0  0  0  0  0
   -4.9276    0.2577   -0.1458 C   0  0  0  0  0  0  0  0  0  0  0  0
   -0.0117   -0.4354   -0.9093 C   0  0  0  0  0  0  0  0  0  0  0  0
   -5.5822   -0.0750    1.1482 C   0  0  0  0  0  0  0  0  0  0  0  0
    1.1690   -1.1654   -0.3828 C   0  0  0  0  0  0  0  0  0  0  0  0
   -6.9828    0.5271    1.1673 C   0  0  0  0  0  0  0  0  0  0  0  0
    2.1344   -1.6330   -1.4394 C   0  0  0  0  0  0  0  0  0  0  0  0
   -6.9057    2.0085    1.0379 C   0  0  0  0  0  0  0  0  0  0  0  0
    3.2748   -2.3301   -0.7080 C   0  0  0  0  0  0  0  0  0  0  0  0
   -8.3443    2.5698    1.0838 C   0  0  0  0  0  0  0  0  0  0  0  0
    4.3124   -2.8458   -1.6574 C   0  0  0  0  0  0  0  0  0  0  0  0
   -8.9216    2.1610    2.4105 C   0  0  0  0  0  0  0  0  0  0  0  0
    5.6142   -0.8356   -1.8426 C   0  0  0  0  0  0  0  0  0  0  0  0
    6.4376    0.3089    0.0626 C   0  0  0  0  0  0  0  0  0  0  0  0
    7.0091    1.2416   -0.7788 C   0  0  0  0  0  0  0  0  0  0  0  0
    6.8520    1.0870   -2.1414 C   0  0  0  0  0  0  0  0  0  0  0  0
    7.7253    2.3094   -0.2557 C   0  0  0  0  0  0  0  0  0  0  0  0
    6.5782    0.4378    1.4282 C   0  0  0  0  0  0  0  0  0  0  0  0
    7.8591    2.4278    1.1104 C   0  0  0  0  0  0  0  0  0  0  0  0
    7.2847    1.4909    1.9498 C   0  0  0  0  0  0  0  0  0  0  0  0
    8.6326    3.5800    1.6886 C   0  0  0  0  0  0  0  0  0  0  0  0
   -2.5319   -3.6036    0.1375 H   0  0  0  0  0  0  0  0  0  0  0  0
   -1.7161   -2.2207    0.8559 H   0  0  0  0  0  0  0  0  0  0  0  0
   -4.0024   -2.0032    0.9667 H   0  0  0  0  0  0  0  0  0  0  0  0
   -4.3102   -2.2626   -0.7483 H   0  0  0  0  0  0  0  0  0  0  0  0
   -0.5769   -3.2586   -1.1631 H   0  0  0  0  0  0  0  0  0  0  0  0
   -2.0142   -2.9617   -2.1297 H   0  0  0  0  0  0  0  0  0  0  0  0
   -2.9290    0.1773    0.6401 H   0  0  0  0  0  0  0  0  0  0  0  0
   -3.0895    0.0543   -1.1186 H   0  0  0  0  0  0  0  0  0  0  0  0
   -1.5003   -0.6180   -2.4645 H   0  0  0  0  0  0  0  0  0  0  0  0
   -0.0919   -1.6163   -2.6354 H   0  0  0  0  0  0  0  0  0  0  0  0
   -4.8233    1.3460   -0.3206 H   0  0  0  0  0  0  0  0  0  0  0  0
   -5.4752   -0.1812   -1.0238 H   0  0  0  0  0  0  0  0  0  0  0  0
   -0.5935    0.0920   -0.1232 H   0  0  0  0  0  0  0  0  0  0  0  0
    0.4005    0.4164   -1.5352 H   0  0  0  0  0  0  0  0  0  0  0  0
   -5.0244    0.4318    1.9582 H   0  0  0  0  0  0  0  0  0  0  0  0
   -5.6647   -1.1782    1.3352 H   0  0  0  0  0  0  0  0  0  0  0  0
    0.7613   -2.0414    0.2063 H   0  0  0  0  0  0  0  0  0  0  0  0
    1.6933   -0.4622    0.3257 H   0  0  0  0  0  0  0  0  0  0  0  0
   -7.4199    0.2521    2.1396 H   0  0  0  0  0  0  0  0  0  0  0  0
   -7.5882    0.0982    0.3223 H   0  0  0  0  0  0  0  0  0  0  0  0
    2.4838   -0.7672   -2.0308 H   0  0  0  0  0  0  0  0  0  0  0  0
    1.6618   -2.3332   -2.1585 H   0  0  0  0  0  0  0  0  0  0  0  0
   -6.3515    2.4146    1.9165 H   0  0  0  0  0  0  0  0  0  0  0  0
   -6.4318    2.3644    0.1223 H   0  0  0  0  0  0  0  0  0  0  0  0
    3.6666   -1.6381    0.0466 H   0  0  0  0  0  0  0  0  0  0  0  0
    2.8202   -3.2088   -0.2053 H   0  0  0  0  0  0  0  0  0  0  0  0
   -8.2937    3.6731    0.9885 H   0  0  0  0  0  0  0  0  0  0  0  0
   -8.8753    2.0802    0.2465 H   0  0  0  0  0  0  0  0  0  0  0  0
    3.9186   -3.6508   -2.3116 H   0  0  0  0  0  0  0  0  0  0  0  0
    5.0832   -3.3659   -1.0150 H   0  0  0  0  0  0  0  0  0  0  0  0
   -8.1976    2.2842    3.2222 H   0  0  0  0  0  0  0  0  0  0  0  0
   -9.2594    1.1029    2.3683 H   0  0  0  0  0  0  0  0  0  0  0  0
   -9.8260    2.8116    2.5954 H   0  0  0  0  0  0  0  0  0  0  0  0
    8.1706    3.0373   -0.9286 H   0  0  0  0  0  0  0  0  0  0  0  0
    6.1282   -0.2958    2.0785 H   0  0  0  0  0  0  0  0  0  0  0  0
    7.4251    1.6383    3.0215 H   0  0  0  0  0  0  0  0  0  0  0  0
    9.5941    3.7025    1.1399 H   0  0  0  0  0  0  0  0  0  0  0  0
    8.0163    4.5104    1.6557 H   0  0  0  0  0  0  0  0  0  0  0  0
    8.8885    3.4001    2.7372 H   0  0  0  0  0  0  0  0  0  0  0  0
  1 19  1  0
  1 21  1  0
  2 21  1  0
  2 24  1  0
  3 24  2  0
  4 21  2  0
  4 22  1  0
  5  6  1  0
  5  7  1  0
  6  8  1  0
  7  9  1  0
  8 10  1  0
  9 11  1  0
 10 12  1  0
 11 13  1  0
 12 14  1  0
 13 15  1  0
 14 16  1  0
 15 17  1  0
 16 18  1  0
 17 19  1  0
 18 20  1  0
 22 23  2  0
 22 26  1  0
 23 24  1  0
 23 25  1  0
 25 27  2  0
 26 28  2  0
 27 28  1  0
 27 29  1  0
  5 30  1  0
  5 31  1  0
  6 32  1  0
  6 33  1  0
  7 34  1  0
  7 35  1  0
  8 36  1  0
  8 37  1  0
  9 38  1  0
  9 39  1  0
 10 40  1  0
 10 41  1  0
 11 42  1  0
 11 43  1  0
 12 44  1  0
 12 45  1  0
 13 46  1  0
 13 47  1  0
 14 48  1  0
 14 49  1  0
 15 50  1  0
 15 51  1  0
 16 52  1  0
 16 53  1  0
 17 54  1  0
 17 55  1  0
 18 56  1  0
 18 57  1  0
 19 58  1  0
 19 59  1  0
 20 60  1  0
 20 61  1  0
 20 62  1  0
 25 63  1  0
 26 64  1  0
 28 65  1  0
 29 66  1  0
 29 67  1  0
 29 68  1  0
M  END

