46505597
     RDKit          3D

 14 14  0  0  0  0  0  0  0  0999 V2000
    1.0645    0.7807    0.0219 C   0  0  0  0  0  0  0  0  0  0  0  0
    1.0502   -0.4745   -0.7671 C   0  0  0  0  0  0  0  0  0  0  0  0
   -0.0477   -1.2622   -0.6386 O   0  0  0  0  0  0  0  0  0  0  0  0
   -0.9430   -0.8876    0.3321 C   0  0  0  0  0  0  0  0  0  0  0  0
   -1.2220    0.5888    0.3727 C   0  0  0  0  0  0  0  0  0  0  0  0
   -0.1309    1.3851    0.2260 O   0  0  0  0  0  0  0  0  0  0  0  0
    1.6100    0.6022    0.9830 H   0  0  0  0  0  0  0  0  0  0  0  0
    1.7258    1.5119   -0.5340 H   0  0  0  0  0  0  0  0  0  0  0  0
    1.1816   -0.2487   -1.8657 H   0  0  0  0  0  0  0  0  0  0  0  0
    1.9828   -1.0551   -0.5126 H   0  0  0  0  0  0  0  0  0  0  0  0
   -0.6015   -1.1707    1.3655 H   0  0  0  0  0  0  0  0  0  0  0  0
   -1.9199   -1.3905    0.1198 H   0  0  0  0  0  0  0  0  0  0  0  0
   -1.9589    0.8477   -0.4333 H   0  0  0  0  0  0  0  0  0  0  0  0
   -1.7911    0.7730    1.3302 H   0  0  0  0  0  0  0  0  0  0  0  0
  1  2  1  0
  2  3  1  0
  3  4  1  0
  4  5  1  0
  5  6  1  0
  1  6  1  0
  1  7  1  0
  1  8  1  0
  2  9  1  0
  2 10  1  0
  4 11  1  0
  4 12  1  0
  5 13  1  0
  5 14  1  0
M  END

