46508938
     RDKit          3D

 21 20  0  0  1  0  0  0  0  0999 V2000
   -1.4969   -1.9379   -0.1367 O   0  0  0  0  0  0  0  0  0  0  0  0
    1.1674   -1.9252    0.1352 O   0  0  0  0  0  0  0  0  0  0  0  0
   -3.0801    0.0754    0.3066 O   0  0  0  0  0  0  0  0  0  0  0  0
    1.0381    1.5369   -0.6507 O   0  0  0  0  0  0  0  0  0  0  0  0
   -1.8482    2.8407    0.1086 O   0  0  0  0  0  1  0  0  0  0  0  0
   -0.7165    1.6988    1.6922 O   0  0  0  0  0  0  0  0  0  0  0  0
    3.3034    1.4541    0.8067 O   0  0  0  0  0  0  0  0  0  0  0  0
    2.5150    0.3620    0.6480 N   0  0  0  0  0  0  0  0  0  0  0  0
   -0.8895   -0.7520    0.4089 C   0  0  1  0  0  0  0  0  0  0  0  0
    0.4767   -0.7638   -0.2902 C   0  0  1  0  0  0  0  0  0  0  0  0
   -1.7517    0.3799   -0.0374 C   0  0  2  0  0  0  0  0  0  0  0  0
    1.3069    0.3985   -0.1269 C   0  0  0  0  0  0  0  0  0  0  0  0
   -1.3997    1.6579    0.6494 C   0  0  0  0  0  0  0  0  0  0  0  0
   -1.6529   -1.6770   -1.0948 H   0  0  0  0  0  0  0  0  0  0  0  0
    1.7551   -2.2212   -0.6002 H   0  0  0  0  0  0  0  0  0  0  0  0
   -3.1225   -0.7156    0.8905 H   0  0  0  0  0  0  0  0  0  0  0  0
    3.8589    1.5067   -0.0183 H   0  0  0  0  0  0  0  0  0  0  0  0
    2.7646   -0.5470    1.0883 H   0  0  0  0  0  0  0  0  0  0  0  0
   -0.8155   -0.9282    1.4801 H   0  0  0  0  0  0  0  0  0  0  0  0
    0.2388   -0.9313   -1.3835 H   0  0  0  0  0  0  0  0  0  0  0  0
   -1.6514    0.4882   -1.1021 H   0  0  0  0  0  0  0  0  0  0  0  0
  9  1  1  0
 10  2  1  0
 11  3  1  0
  4 12  2  0
  5 13  1  0
  6 13  2  0
  7  8  1  0
  8 12  1  0
  9 10  1  0
  9 11  1  0
 10 12  1  0
 11 13  1  0
  1 14  1  0
  2 15  1  0
  3 16  1  0
  7 17  1  0
  8 18  1  0
  9 19  1  1
 10 20  1  6
 11 21  1  6
M  CHG  1   5  -1
M  END

