46506730
     RDKit          3D

 61 65  0  0  0  0  0  0  0  0999 V2000
   -5.0104   -4.2379    0.9755 C   0  0  0  0  0  0  0  0  0  0  0  0
   -4.1726   -3.9929   -0.1610 N   0  0  0  0  0  0  0  0  0  0  0  0
   -4.3303   -4.7292   -1.4216 C   0  0  0  0  0  0  0  0  0  0  0  0
   -3.1392   -3.0062   -0.1094 C   0  0  0  0  0  0  0  0  0  0  0  0
   -1.8844   -3.3693   -0.1050 C   0  0  0  0  0  0  0  0  0  0  0  0
   -0.7070   -2.4828   -0.0559 C   0  0  0  0  0  0  0  0  0  0  0  0
   -1.1457   -1.0607   -0.0154 C   0  0  0  0  0  0  0  0  0  0  0  0
   -0.2418   -0.1070    0.0287 C   0  0  0  0  0  0  0  0  0  0  0  0
   -0.6524    1.3132    0.0713 C   0  0  0  0  0  0  0  0  0  0  0  0
    0.3193    2.3017    0.1094 C   0  0  0  0  0  0  0  0  0  0  0  0
   -0.0667    3.6332    0.1421 C   0  0  0  0  0  0  0  0  0  0  0  0
   -1.3649    4.0357    0.1389 C   0  0  0  0  0  0  0  0  0  0  0  0
   -2.3307    3.0456    0.1007 C   0  0  0  0  0  0  0  0  0  0  0  0
   -1.9761    1.6962    0.0664 C   0  0  0  0  0  0  0  0  0  0  0  0
   -2.9193    0.6945    0.0217 O   0  0  0  0  0  0  0  0  0  0  0  0
   -2.5449   -0.6624   -0.0197 C   0  0  0  0  0  0  0  0  0  0  0  0
   -3.4882   -1.5956   -0.0649 C   0  0  0  0  0  0  0  0  0  0  0  0
   -1.7130    5.4204    0.1697 N   0  0  0  0  0  0  0  0  0  0  0  0
   -0.6533    6.4023    0.2215 C   0  0  0  0  0  0  0  0  0  0  0  0
   -3.0895    5.8588    0.1437 C   0  0  0  0  0  0  0  0  0  0  0  0
    1.1897   -0.3879   -0.0427 C   0  0  0  0  0  0  0  0  0  0  0  0
    1.7677   -0.8150   -1.2368 C   0  0  0  0  0  0  0  0  0  0  0  0
    3.1161   -1.0680   -1.3633 C   0  0  0  0  0  0  0  0  0  0  0  0
    3.9482   -0.9003   -0.2805 C   0  0  0  0  0  0  0  0  0  0  0  0
    3.3892   -0.4853    0.8930 C   0  0  0  0  0  0  0  0  0  0  0  0
    2.0180   -0.2223    1.0442 C   0  0  0  0  0  0  0  0  0  0  0  0
    1.4886    0.1578    2.3449 C   0  0  0  0  0  0  0  0  0  0  0  0
    0.1522    0.3196    2.5370 O   0  0  0  0  0  0  0  0  0  0  0  0
    2.2860    0.3305    3.2915 O   0  0  0  0  0  0  0  0  0  0  0  0
    5.3527   -1.1304   -0.4031 N   0  0  0  0  0  0  0  0  0  0  0  0
    6.0828   -1.6138   -1.5134 C   0  0  0  0  0  0  0  0  0  0  0  0
    5.6397   -1.9561   -2.6299 O   0  0  0  0  0  0  0  0  0  0  0  0
    7.5032   -1.6605   -1.1552 C   0  0  0  0  0  0  0  0  0  0  0  0
    7.6617   -1.2411    0.0819 C   0  0  0  0  0  0  0  0  0  0  0  0
    6.3321   -0.8924    0.6067 C   0  0  0  0  0  0  0  0  0  0  0  0
    6.2020   -0.4607    1.7804 O   0  0  0  0  0  0  0  0  0  0  0  0
   -5.0325   -3.3846    1.6634 H   0  0  0  0  0  0  0  0  0  0  0  0
   -4.6864   -5.1562    1.5055 H   0  0  0  0  0  0  0  0  0  0  0  0
   -6.0456   -4.4029    0.5767 H   0  0  0  0  0  0  0  0  0  0  0  0
   -4.5640   -3.9425   -2.1862 H   0  0  0  0  0  0  0  0  0  0  0  0
   -5.1752   -5.4204   -1.2946 H   0  0  0  0  0  0  0  0  0  0  0  0
   -3.3916   -5.2088   -1.6940 H   0  0  0  0  0  0  0  0  0  0  0  0
   -1.6500   -4.4451   -0.1399 H   0  0  0  0  0  0  0  0  0  0  0  0
   -0.0394   -2.6236   -0.9125 H   0  0  0  0  0  0  0  0  0  0  0  0
   -0.1354   -2.6875    0.8990 H   0  0  0  0  0  0  0  0  0  0  0  0
    1.3461    1.9961    0.1138 H   0  0  0  0  0  0  0  0  0  0  0  0
    0.7456    4.3491    0.1675 H   0  0  0  0  0  0  0  0  0  0  0  0
   -3.3663    3.3145    0.0990 H   0  0  0  0  0  0  0  0  0  0  0  0
   -4.5412   -1.2996   -0.0692 H   0  0  0  0  0  0  0  0  0  0  0  0
   -0.1481    6.3093    1.2009 H   0  0  0  0  0  0  0  0  0  0  0  0
   -1.0384    7.4312    0.0980 H   0  0  0  0  0  0  0  0  0  0  0  0
    0.0688    6.1265   -0.5845 H   0  0  0  0  0  0  0  0  0  0  0  0
   -3.4980    5.8422   -0.9057 H   0  0  0  0  0  0  0  0  0  0  0  0
   -3.1439    6.9239    0.4478 H   0  0  0  0  0  0  0  0  0  0  0  0
   -3.7312    5.2902    0.8363 H   0  0  0  0  0  0  0  0  0  0  0  0
    1.1427   -0.9504   -2.1063 H   0  0  0  0  0  0  0  0  0  0  0  0
    3.4978   -1.3970   -2.3155 H   0  0  0  0  0  0  0  0  0  0  0  0
    3.9795   -0.3320    1.8075 H   0  0  0  0  0  0  0  0  0  0  0  0
   -0.4761   -0.3283    2.9977 H   0  0  0  0  0  0  0  0  0  0  0  0
    8.2915   -1.9879   -1.8057 H   0  0  0  0  0  0  0  0  0  0  0  0
    8.5729   -1.1483    0.6528 H   0  0  0  0  0  0  0  0  0  0  0  0
  1  2  1  0
  2  3  1  0
  2  4  1  0
  4  5  2  0
  5  6  1  0
  6  7  1  0
  7  8  2  0
  8  9  1  0
  9 10  2  0
 10 11  1  0
 11 12  2  0
 12 13  1  0
 13 14  2  0
  9 14  1  0
 14 15  1  0
 15 16  1  0
  7 16  1  0
 16 17  2  0
  4 17  1  0
 12 18  1  0
 18 19  1  0
 18 20  1  0
  8 21  1  0
 21 22  2  0
 22 23  1  0
 23 24  2  0
 24 25  1  0
 25 26  2  0
 21 26  1  0
 26 27  1  0
 27 28  1  0
 27 29  2  0
 24 30  1  0
 30 31  1  0
 31 32  2  0
 31 33  1  0
 33 34  2  0
 34 35  1  0
 30 35  1  0
 35 36  2  0
  1 37  1  0
  1 38  1  0
  1 39  1  0
  3 40  1  0
  3 41  1  0
  3 42  1  0
  5 43  1  0
  6 44  1  0
  6 45  1  0
 10 46  1  0
 11 47  1  0
 13 48  1  0
 17 49  1  0
 19 50  1  0
 19 51  1  0
 19 52  1  0
 20 53  1  0
 20 54  1  0
 20 55  1  0
 22 56  1  0
 23 57  1  0
 25 58  1  0
 28 59  1  0
 33 60  1  0
 34 61  1  0
M  END

