46505841
     RDKit          3D

 23 22  0  0  1  0  0  0  0  0999 V2000
    3.9792    0.1396   -0.2496 C   0  0  0  0  0  0  0  0  0  0  0  0
    2.5776    0.3854   -0.4759 N   0  0  0  0  0  0  0  0  0  0  0  0
    1.5395   -0.2953    0.1772 C   0  0  0  0  0  0  0  0  0  0  0  0
    1.7984   -1.1879    1.0249 O   0  0  0  0  0  0  0  0  0  0  0  0
    0.1270    0.0060   -0.1018 C   0  0  0  0  0  0  0  0  0  0  0  0
   -0.8037   -0.8553    0.7218 C   0  0  0  0  0  0  0  0  0  0  0  0
   -2.2304   -0.5152    0.4062 C   0  0  2  0  0  0  0  0  0  0  0  0
   -2.4784   -0.7506   -0.9958 N   0  0  0  0  0  0  0  0  0  0  0  0
   -2.4524    0.9244    0.6800 C   0  0  0  0  0  0  0  0  0  0  0  0
   -2.8351    1.8371   -0.3008 O   0  0  0  0  0  0  0  0  0  0  0  0
   -2.3011    1.4080    1.8504 O   0  0  0  0  0  0  0  0  0  0  0  0
    4.1871   -0.3016    0.7417 H   0  0  0  0  0  0  0  0  0  0  0  0
    4.3573   -0.5263   -1.0755 H   0  0  0  0  0  0  0  0  0  0  0  0
    4.5269    1.1046   -0.3141 H   0  0  0  0  0  0  0  0  0  0  0  0
    2.3451    1.1308   -1.1838 H   0  0  0  0  0  0  0  0  0  0  0  0
   -0.0891   -0.2334   -1.1700 H   0  0  0  0  0  0  0  0  0  0  0  0
   -0.0810    1.0686    0.1361 H   0  0  0  0  0  0  0  0  0  0  0  0
   -0.5846   -0.7080    1.8058 H   0  0  0  0  0  0  0  0  0  0  0  0
   -0.6605   -1.9325    0.4229 H   0  0  0  0  0  0  0  0  0  0  0  0
   -2.8924   -1.1350    1.0581 H   0  0  0  0  0  0  0  0  0  0  0  0
   -2.4910    0.1241   -1.5543 H   0  0  0  0  0  0  0  0  0  0  0  0
   -1.7727   -1.3926   -1.3773 H   0  0  0  0  0  0  0  0  0  0  0  0
   -3.7656    1.7053   -0.7090 H   0  0  0  0  0  0  0  0  0  0  0  0
  1  2  1  0
  2  3  1  0
  3  4  2  0
  3  5  1  0
  5  6  1  0
  6  7  1  0
  7  8  1  0
  7  9  1  0
  9 10  1  0
  9 11  2  0
  1 12  1  0
  1 13  1  0
  1 14  1  0
  2 15  1  0
  5 16  1  0
  5 17  1  0
  6 18  1  0
  6 19  1  0
  7 20  1  1
  8 21  1  0
  8 22  1  0
 10 23  1  0
M  END

