46504533
     RDKit          3D

 64 69  0  0  0  0  0  0  0  0999 V2000
    1.7832   -1.4548   -2.5285 O   0  0  0  0  0  0  0  0  0  0  0  0
   -2.9676    2.4092    1.7625 O   0  0  0  0  0  0  0  0  0  0  0  0
    3.0342   -0.2216   -1.0613 N   0  0  0  0  0  0  0  0  0  0  0  0
    6.4135   -1.1587    1.7646 N   0  0  0  0  0  0  0  0  0  0  0  0
    7.4179   -0.8781   -0.1048 N   0  0  0  0  0  0  0  0  0  0  0  0
   -3.4587    0.9995   -0.0093 N   0  0  0  0  0  0  0  0  0  0  0  0
    4.0029   -0.9828    1.0724 C   0  0  0  0  0  0  0  0  0  0  0  0
    3.1913    0.0933    0.3668 C   0  0  0  0  0  0  0  0  0  0  0  0
    5.4365   -0.9720    0.8212 C   0  0  0  0  0  0  0  0  0  0  0  0
    6.1074   -0.7943   -0.3670 C   0  0  0  0  0  0  0  0  0  0  0  0
    4.1777   -0.2817   -1.9435 C   0  0  0  0  0  0  0  0  0  0  0  0
    5.5015   -0.5451   -1.6712 C   0  0  0  0  0  0  0  0  0  0  0  0
    7.6108   -1.1025    1.2063 C   0  0  0  0  0  0  0  0  0  0  0  0
    1.7911   -0.5834   -1.5792 C   0  0  0  0  0  0  0  0  0  0  0  0
    3.7872   -0.0263   -3.2317 C   0  0  0  0  0  0  0  0  0  0  0  0
    6.4321   -0.5601   -2.6601 C   0  0  0  0  0  0  0  0  0  0  0  0
    0.4782   -0.0940   -1.1795 C   0  0  0  0  0  0  0  0  0  0  0  0
    4.7515   -0.0463   -4.2254 C   0  0  0  0  0  0  0  0  0  0  0  0
    6.0793   -0.3101   -3.9681 C   0  0  0  0  0  0  0  0  0  0  0  0
    8.9663   -1.2417    1.8051 C   0  0  0  0  0  0  0  0  0  0  0  0
    0.2700    0.9905   -0.3799 C   0  0  0  0  0  0  0  0  0  0  0  0
   -0.6785   -0.7775   -1.5721 C   0  0  0  0  0  0  0  0  0  0  0  0
   -2.1297    0.7124   -0.3673 C   0  0  0  0  0  0  0  0  0  0  0  0
   -1.0117    1.3984    0.0288 C   0  0  0  0  0  0  0  0  0  0  0  0
   -1.9377   -0.4038   -1.1915 C   0  0  0  0  0  0  0  0  0  0  0  0
   -5.2233    2.1212    1.4220 C   0  0  0  0  0  0  0  0  0  0  0  0
   -6.2343    1.2448    1.2508 C   0  0  0  0  0  0  0  0  0  0  0  0
   -3.8496    1.8352    1.0504 C   0  0  0  0  0  0  0  0  0  0  0  0
   -6.0494   -0.1378    0.8361 C   0  0  0  0  0  0  0  0  0  0  0  0
   -5.4660    3.4187    1.9031 C   0  0  0  0  0  0  0  0  0  0  0  0
   -7.5553    1.6103    1.5458 C   0  0  0  0  0  0  0  0  0  0  0  0
   -6.7560    3.7648    2.1890 C   0  0  0  0  0  0  0  0  0  0  0  0
   -7.7929    2.8765    2.0141 C   0  0  0  0  0  0  0  0  0  0  0  0
   -5.1408   -0.9714    1.4919 C   0  0  0  0  0  0  0  0  0  0  0  0
   -6.8055   -0.6025   -0.2187 C   0  0  0  0  0  0  0  0  0  0  0  0
   -4.9972   -2.2721    1.0822 C   0  0  0  0  0  0  0  0  0  0  0  0
   -6.6543   -1.9126   -0.6235 C   0  0  0  0  0  0  0  0  0  0  0  0
   -5.7427   -2.7426    0.0372 C   0  0  0  0  0  0  0  0  0  0  0  0
    6.2276   -1.3198    2.7650 H   0  0  0  0  0  0  0  0  0  0  0  0
   -4.2276    0.5964   -0.5891 H   0  0  0  0  0  0  0  0  0  0  0  0
    3.7524   -0.9554    2.1528 H   0  0  0  0  0  0  0  0  0  0  0  0
    3.5990   -1.9660    0.6917 H   0  0  0  0  0  0  0  0  0  0  0  0
    3.5749    1.0834    0.5608 H   0  0  0  0  0  0  0  0  0  0  0  0
    2.1734   -0.0171    0.8576 H   0  0  0  0  0  0  0  0  0  0  0  0
    2.7688    0.2027   -3.4356 H   0  0  0  0  0  0  0  0  0  0  0  0
    7.4810   -0.7732   -2.4200 H   0  0  0  0  0  0  0  0  0  0  0  0
    4.4445    0.1556   -5.2489 H   0  0  0  0  0  0  0  0  0  0  0  0
    6.7944   -0.3159   -4.7720 H   0  0  0  0  0  0  0  0  0  0  0  0
    8.9559   -1.5253    2.8591 H   0  0  0  0  0  0  0  0  0  0  0  0
    9.5334   -1.9762    1.1975 H   0  0  0  0  0  0  0  0  0  0  0  0
    9.4660   -0.2414    1.6371 H   0  0  0  0  0  0  0  0  0  0  0  0
    1.1027    1.6145   -0.0567 H   0  0  0  0  0  0  0  0  0  0  0  0
   -0.5427   -1.6468   -2.2120 H   0  0  0  0  0  0  0  0  0  0  0  0
   -1.1012    2.2822    0.6610 H   0  0  0  0  0  0  0  0  0  0  0  0
   -2.8271   -0.9725   -1.5242 H   0  0  0  0  0  0  0  0  0  0  0  0
   -4.6320    4.0895    2.0287 H   0  0  0  0  0  0  0  0  0  0  0  0
   -8.3618    0.9196    1.4100 H   0  0  0  0  0  0  0  0  0  0  0  0
   -6.9353    4.7687    2.5594 H   0  0  0  0  0  0  0  0  0  0  0  0
   -8.8087    3.1520    2.2387 H   0  0  0  0  0  0  0  0  0  0  0  0
   -4.5629   -0.5737    2.3163 H   0  0  0  0  0  0  0  0  0  0  0  0
   -7.5056    0.0486   -0.7193 H   0  0  0  0  0  0  0  0  0  0  0  0
   -4.2843   -2.9353    1.5920 H   0  0  0  0  0  0  0  0  0  0  0  0
   -7.2158   -2.3209   -1.4322 H   0  0  0  0  0  0  0  0  0  0  0  0
   -5.6505   -3.7747   -0.3129 H   0  0  0  0  0  0  0  0  0  0  0  0
  1 14  2  0
  2 28  2  0
  3  8  1  0
  3 11  1  0
  3 14  1  0
  4  9  1  0
  4 13  1  0
  5 10  1  0
  5 13  2  0
  6 23  1  0
  6 28  1  0
  7  8  1  0
  7  9  1  0
  9 10  2  0
 10 12  1  0
 11 12  2  0
 11 15  1  0
 12 16  1  0
 13 20  1  0
 14 17  1  0
 15 18  2  0
 16 19  2  0
 17 21  2  0
 17 22  1  0
 18 19  1  0
 21 24  1  0
 22 25  2  0
 23 24  2  0
 23 25  1  0
 26 27  1  0
 26 28  1  0
 26 30  2  0
 27 29  1  0
 27 31  2  0
 29 34  2  0
 29 35  1  0
 30 32  1  0
 31 33  1  0
 32 33  2  0
 34 36  1  0
 35 37  2  0
 36 38  2  0
 37 38  1  0
  4 39  1  0
  6 40  1  0
  7 41  1  0
  7 42  1  0
  8 43  1  0
  8 44  1  0
 15 45  1  0
 16 46  1  0
 18 47  1  0
 19 48  1  0
 20 49  1  0
 20 50  1  0
 20 51  1  0
 21 52  1  0
 22 53  1  0
 24 54  1  0
 25 55  1  0
 30 56  1  0
 31 57  1  0
 32 58  1  0
 33 59  1  0
 34 60  1  0
 35 61  1  0
 36 62  1  0
 37 63  1  0
 38 64  1  0
M  END

