46508493
     RDKit          3D

105110  0  0  1  0  0  0  0  0999 V2000
   -4.6382   -1.4908   -1.0644 O   0  0  0  0  0  0  0  0  0  0  0  0
    4.3808   -0.3652   -2.2156 O   0  0  0  0  0  0  0  0  0  0  0  0
   -4.3746   -2.4818   -3.1367 O   0  0  0  0  0  0  0  0  0  0  0  0
    6.5488   -0.0703   -2.4874 O   0  0  0  0  0  0  0  0  0  0  0  0
   -5.3142    1.0445   -0.4174 N   0  0  0  0  0  0  0  0  0  0  0  0
    4.8602   -0.7677    1.1959 N   0  0  0  0  0  0  0  0  0  0  0  0
   -7.3628    0.9357    1.4194 N   0  0  0  0  0  4  0  0  0  0  0  0
    7.4448   -0.5054    2.0828 N   0  0  0  0  0  4  0  0  0  0  0  0
   -0.5922    1.2019   -0.7287 C   0  0  2  0  0  0  0  0  0  0  0  0
    0.3320   -0.0080   -0.6609 C   0  0  1  0  0  0  0  0  0  0  0  0
   -1.9161    0.8294   -1.3229 C   0  0  1  0  0  0  0  0  0  0  0  0
   -2.5011   -0.4306   -0.6680 C   0  0  2  0  0  0  0  0  0  0  0  0
    1.6182    0.4668   -0.0418 C   0  0  2  0  0  0  0  0  0  0  0  0
    2.2567    1.2825   -1.1622 C   0  0  1  0  0  0  0  0  0  0  0  0
   -0.2871   -1.2179   -0.0941 C   0  0  0  0  0  0  0  0  0  0  0  0
   -1.5516   -1.5210   -0.9179 C   0  0  0  0  0  0  0  0  0  0  0  0
   -3.7884   -0.4825   -1.4767 C   0  0  2  0  0  0  0  0  0  0  0  0
   -3.0427    1.7781   -0.9836 C   0  0  0  0  0  0  0  0  0  0  0  0
   -0.0147    2.2909   -1.5894 C   0  0  0  0  0  0  0  0  0  0  0  0
   -4.2641    0.9342   -1.3133 C   0  0  2  0  0  0  0  0  0  0  0  0
    1.4473    2.4902   -1.5330 C   0  0  0  0  0  0  0  0  0  0  0  0
    2.4908   -0.5065    0.5920 C   0  0  0  0  0  0  0  0  0  0  0  0
    3.6901    1.5698   -0.9675 C   0  0  0  0  0  0  0  0  0  0  0  0
    3.9014   -0.6866    0.1521 C   0  0  1  0  0  0  0  0  0  0  0  0
   -2.7723   -0.2852    0.7768 C   0  0  0  0  0  0  0  0  0  0  0  0
    1.2114    1.4933    1.0334 C   0  0  0  0  0  0  0  0  0  0  0  0
    4.3898    0.1974   -0.9527 C   0  0  1  0  0  0  0  0  0  0  0  0
   -6.5459    0.4117   -0.7724 C   0  0  0  0  0  0  0  0  0  0  0  0
   -5.5944    2.2426    0.2668 C   0  0  0  0  0  0  0  0  0  0  0  0
    5.1041    0.2371    2.1002 C   0  0  0  0  0  0  0  0  0  0  0  0
    5.6090   -1.9352    1.3816 C   0  0  0  0  0  0  0  0  0  0  0  0
   -7.1048   -0.1644    0.5170 C   0  0  0  0  0  0  0  0  0  0  0  0
   -6.3168    1.8868    1.5487 C   0  0  0  0  0  0  0  0  0  0  0  0
    6.5716    0.6243    2.0870 C   0  0  0  0  0  0  0  0  0  0  0  0
    6.7033   -1.6968    2.3894 C   0  0  0  0  0  0  0  0  0  0  0  0
   -4.9075   -2.5218   -1.9944 C   0  0  0  0  0  0  0  0  0  0  0  0
   -8.6360    1.5485    1.0300 C   0  0  0  0  0  0  0  0  0  0  0  0
   -7.6032    0.3380    2.7296 C   0  0  0  0  0  0  0  0  0  0  0  0
    5.4976   -0.4964   -2.9901 C   0  0  0  0  0  0  0  0  0  0  0  0
    8.4704   -0.3595    3.1306 C   0  0  0  0  0  0  0  0  0  0  0  0
    8.1890   -0.6249    0.8420 C   0  0  0  0  0  0  0  0  0  0  0  0
   -5.8012   -3.6525   -1.6655 C   0  0  0  0  0  0  0  0  0  0  0  0
    5.4698   -1.1153   -4.3643 C   0  0  0  0  0  0  0  0  0  0  0  0
   -0.8395    1.5980    0.2873 H   0  0  0  0  0  0  0  0  0  0  0  0
    0.5168   -0.2525   -1.7545 H   0  0  0  0  0  0  0  0  0  0  0  0
   -1.8612    0.6081   -2.4048 H   0  0  0  0  0  0  0  0  0  0  0  0
    2.1879    0.6113   -2.0738 H   0  0  0  0  0  0  0  0  0  0  0  0
   -0.4807   -1.2305    0.9750 H   0  0  0  0  0  0  0  0  0  0  0  0
    0.3569   -2.1003   -0.3961 H   0  0  0  0  0  0  0  0  0  0  0  0
   -1.2010   -1.4657   -1.9798 H   0  0  0  0  0  0  0  0  0  0  0  0
   -1.9837   -2.4872   -0.6611 H   0  0  0  0  0  0  0  0  0  0  0  0
   -3.4466   -0.6006   -2.5463 H   0  0  0  0  0  0  0  0  0  0  0  0
   -2.9600    1.9915    0.1000 H   0  0  0  0  0  0  0  0  0  0  0  0
   -3.0125    2.7211   -1.5266 H   0  0  0  0  0  0  0  0  0  0  0  0
   -0.4898    3.2504   -1.2207 H   0  0  0  0  0  0  0  0  0  0  0  0
   -0.4013    2.1752   -2.6259 H   0  0  0  0  0  0  0  0  0  0  0  0
   -4.6095    1.3532   -2.3157 H   0  0  0  0  0  0  0  0  0  0  0  0
    1.7756    2.7623   -2.5863 H   0  0  0  0  0  0  0  0  0  0  0  0
    1.7705    3.4076   -0.9566 H   0  0  0  0  0  0  0  0  0  0  0  0
    2.0097   -1.5295    0.6028 H   0  0  0  0  0  0  0  0  0  0  0  0
    2.5739   -0.3316    1.7153 H   0  0  0  0  0  0  0  0  0  0  0  0
    4.0604    2.0333   -1.9188 H   0  0  0  0  0  0  0  0  0  0  0  0
    3.9768    2.2044   -0.1399 H   0  0  0  0  0  0  0  0  0  0  0  0
    4.0043   -1.7325   -0.3250 H   0  0  0  0  0  0  0  0  0  0  0  0
   -1.9968    0.2711    1.3418 H   0  0  0  0  0  0  0  0  0  0  0  0
   -2.7430   -1.3223    1.2286 H   0  0  0  0  0  0  0  0  0  0  0  0
   -3.7338    0.1254    1.0773 H   0  0  0  0  0  0  0  0  0  0  0  0
    0.9598    2.4679    0.6516 H   0  0  0  0  0  0  0  0  0  0  0  0
    2.1097    1.6574    1.7049 H   0  0  0  0  0  0  0  0  0  0  0  0
    0.4635    1.0389    1.7407 H   0  0  0  0  0  0  0  0  0  0  0  0
    5.4459    0.4796   -0.7492 H   0  0  0  0  0  0  0  0  0  0  0  0
   -6.5453   -0.2603   -1.6166 H   0  0  0  0  0  0  0  0  0  0  0  0
   -7.2644    1.2583   -1.0416 H   0  0  0  0  0  0  0  0  0  0  0  0
   -4.7445    2.8755    0.5395 H   0  0  0  0  0  0  0  0  0  0  0  0
   -6.2807    2.8618   -0.3438 H   0  0  0  0  0  0  0  0  0  0  0  0
    4.5693    1.2168    1.9060 H   0  0  0  0  0  0  0  0  0  0  0  0
    4.9254   -0.0424    3.1909 H   0  0  0  0  0  0  0  0  0  0  0  0
    5.0183   -2.8478    1.6166 H   0  0  0  0  0  0  0  0  0  0  0  0
    6.1365   -2.1933    0.4163 H   0  0  0  0  0  0  0  0  0  0  0  0
   -6.3399   -0.8010    0.9759 H   0  0  0  0  0  0  0  0  0  0  0  0
   -8.0651   -0.6834    0.3479 H   0  0  0  0  0  0  0  0  0  0  0  0
   -6.7607    2.8365    1.9374 H   0  0  0  0  0  0  0  0  0  0  0  0
   -5.5754    1.5728    2.3393 H   0  0  0  0  0  0  0  0  0  0  0  0
    6.8024    1.2753    1.2056 H   0  0  0  0  0  0  0  0  0  0  0  0
    6.8238    1.2539    2.9811 H   0  0  0  0  0  0  0  0  0  0  0  0
    6.2284   -1.5666    3.3819 H   0  0  0  0  0  0  0  0  0  0  0  0
    7.3843   -2.5813    2.4736 H   0  0  0  0  0  0  0  0  0  0  0  0
   -9.3199    1.6699    1.8988 H   0  0  0  0  0  0  0  0  0  0  0  0
   -9.1722    0.8901    0.3071 H   0  0  0  0  0  0  0  0  0  0  0  0
   -8.4884    2.5631    0.6120 H   0  0  0  0  0  0  0  0  0  0  0  0
   -6.6128   -0.0434    3.0839 H   0  0  0  0  0  0  0  0  0  0  0  0
   -8.2325   -0.5829    2.5989 H   0  0  0  0  0  0  0  0  0  0  0  0
   -8.0664    1.0423    3.4419 H   0  0  0  0  0  0  0  0  0  0  0  0
    9.2763   -1.0932    3.0143 H   0  0  0  0  0  0  0  0  0  0  0  0
    8.9412    0.6407    2.9036 H   0  0  0  0  0  0  0  0  0  0  0  0
    8.0427   -0.2688    4.1292 H   0  0  0  0  0  0  0  0  0  0  0  0
    7.6650   -0.1237   -0.0002 H   0  0  0  0  0  0  0  0  0  0  0  0
    8.4001   -1.6807    0.6815 H   0  0  0  0  0  0  0  0  0  0  0  0
    9.1611   -0.1017    0.9392 H   0  0  0  0  0  0  0  0  0  0  0  0
   -6.8025   -3.5464   -2.1468 H   0  0  0  0  0  0  0  0  0  0  0  0
   -5.3692   -4.5841   -2.0894 H   0  0  0  0  0  0  0  0  0  0  0  0
   -5.8616   -3.8165   -0.5704 H   0  0  0  0  0  0  0  0  0  0  0  0
    4.6504   -1.8629   -4.4089 H   0  0  0  0  0  0  0  0  0  0  0  0
    6.4317   -1.6465   -4.5450 H   0  0  0  0  0  0  0  0  0  0  0  0
    5.3356   -0.3670   -5.1585 H   0  0  0  0  0  0  0  0  0  0  0  0
 17  1  1  0
  1 36  1  0
 27  2  1  0
  2 39  1  0
  3 36  2  0
  4 39  2  0
 20  5  1  0
  5 28  1  0
  5 29  1  0
 24  6  1  0
  6 30  1  0
  6 31  1  0
  7 32  1  0
  7 33  1  0
  7 37  1  0
  7 38  1  0
  8 34  1  0
  8 35  1  0
  8 40  1  0
  8 41  1  0
  9 10  1  0
  9 11  1  0
  9 19  1  0
 10 13  1  0
 10 15  1  0
 11 12  1  0
 11 18  1  0
 12 16  1  0
 12 17  1  0
 12 25  1  1
 13 14  1  0
 13 22  1  0
 13 26  1  1
 14 21  1  0
 14 23  1  0
 15 16  1  0
 17 20  1  0
 18 20  1  0
 19 21  1  0
 22 24  1  0
 23 27  1  0
 24 27  1  0
 28 32  1  0
 29 33  1  0
 30 34  1  0
 31 35  1  0
 36 42  1  0
 39 43  1  0
  9 44  1  1
 10 45  1  6
 11 46  1  6
 14 47  1  6
 15 48  1  0
 15 49  1  0
 16 50  1  0
 16 51  1  0
 17 52  1  6
 18 53  1  0
 18 54  1  0
 19 55  1  0
 19 56  1  0
 20 57  1  6
 21 58  1  0
 21 59  1  0
 22 60  1  0
 22 61  1  0
 23 62  1  0
 23 63  1  0
 24 64  1  6
 25 65  1  0
 25 66  1  0
 25 67  1  0
 26 68  1  0
 26 69  1  0
 26 70  1  0
 27 71  1  1
 28 72  1  0
 28 73  1  0
 29 74  1  0
 29 75  1  0
 30 76  1  0
 30 77  1  0
 31 78  1  0
 31 79  1  0
 32 80  1  0
 32 81  1  0
 33 82  1  0
 33 83  1  0
 34 84  1  0
 34 85  1  0
 35 86  1  0
 35 87  1  0
 37 88  1  0
 37 89  1  0
 37 90  1  0
 38 91  1  0
 38 92  1  0
 38 93  1  0
 40 94  1  0
 40 95  1  0
 40 96  1  0
 41 97  1  0
 41 98  1  0
 41 99  1  0
 42100  1  0
 42101  1  0
 42102  1  0
 43103  1  0
 43104  1  0
 43105  1  0
M  CHG  2   7   1   8   1
M  END

