46506258
     RDKit          3D

 22 21  0  0  1  0  0  0  0  0999 V2000
   -2.3896    0.1689    1.2533 C   0  0  0  0  0  0  0  0  0  0  0  0
   -0.8941   -0.2018    1.0363 C   0  0  0  0  0  0  0  0  0  0  0  0
    0.5897   -0.9081   -0.9300 C   0  0  0  0  0  0  0  0  0  0  0  0
    1.7767   -0.0536   -0.8242 C   0  0  0  0  0  0  0  0  0  0  0  0
   -0.7074   -0.5041   -0.3950 C   0  0  2  0  0  0  0  0  0  0  0  0
    2.3104    0.2009    0.5172 C   0  0  0  0  0  0  0  0  0  0  0  0
   -1.3152    0.5988   -1.1494 N   0  0  0  0  0  0  0  0  0  0  0  0
    1.9371   -0.4457    1.5039 O   0  0  0  0  0  0  0  0  0  0  0  0
    3.2656    1.1895    0.7318 O   0  0  0  0  0  0  0  0  0  0  0  0
   -2.8006    0.6707    0.3794 H   0  0  0  0  0  0  0  0  0  0  0  0
   -2.9781   -0.7456    1.4769 H   0  0  0  0  0  0  0  0  0  0  0  0
   -2.4719    0.8142    2.1497 H   0  0  0  0  0  0  0  0  0  0  0  0
   -0.6759   -1.0687    1.6628 H   0  0  0  0  0  0  0  0  0  0  0  0
   -0.3792    0.7237    1.3838 H   0  0  0  0  0  0  0  0  0  0  0  0
    0.4280   -1.1078   -2.0441 H   0  0  0  0  0  0  0  0  0  0  0  0
    0.8680   -1.9332   -0.5523 H   0  0  0  0  0  0  0  0  0  0  0  0
    1.7116    0.8902   -1.4338 H   0  0  0  0  0  0  0  0  0  0  0  0
    2.6165   -0.6113   -1.3629 H   0  0  0  0  0  0  0  0  0  0  0  0
   -1.4199   -1.3723   -0.6215 H   0  0  0  0  0  0  0  0  0  0  0  0
   -2.0026    0.2868   -1.8425 H   0  0  0  0  0  0  0  0  0  0  0  0
   -0.5819    1.2380   -1.5291 H   0  0  0  0  0  0  0  0  0  0  0  0
    3.1129    2.1702    0.5896 H   0  0  0  0  0  0  0  0  0  0  0  0
  1  2  1  0
  3  4  1  0
  2  5  1  0
  3  5  1  0
  4  6  1  0
  5  7  1  0
  6  8  2  0
  6  9  1  0
  1 10  1  0
  1 11  1  0
  1 12  1  0
  2 13  1  0
  2 14  1  0
  3 15  1  0
  3 16  1  0
  4 17  1  0
  4 18  1  0
  5 19  1  6
  7 20  1  0
  7 21  1  0
  9 22  1  0
M  END

