46506642
     RDKit          3D

 87 91  0  0  1  0  0  0  0  0999 V2000
   -1.2710   -8.2765   -1.0559 C   0  0  0  0  0  0  0  0  0  0  0  0
   -2.5621   -7.8261   -0.8665 C   0  0  0  0  0  0  0  0  0  0  0  0
   -2.7990   -6.5166   -0.5491 C   0  0  0  0  0  0  0  0  0  0  0  0
   -0.2103   -7.3954   -0.9461 C   0  0  0  0  0  0  0  0  0  0  0  0
   -0.4456   -6.0669   -0.6430 C   0  0  0  0  0  0  0  0  0  0  0  0
   -1.7385   -5.6215   -0.4498 C   0  0  0  0  0  0  0  0  0  0  0  0
   -2.0039   -4.2269   -0.2619 C   0  0  0  0  0  0  0  0  0  0  0  0
    0.6130   -5.0579   -0.6399 C   0  0  0  0  0  0  0  0  0  0  0  0
    0.3218   -3.6293   -0.4398 C   0  0  0  0  0  0  0  0  0  0  0  0
   -0.9542   -3.2145   -0.2585 C   0  0  0  0  0  0  0  0  0  0  0  0
   -1.2706   -1.8362   -0.1913 C   0  0  0  0  0  0  0  0  0  0  0  0
    1.3434   -2.7143   -0.5044 C   0  0  0  0  0  0  0  0  0  0  0  0
    1.7791   -5.4462   -0.8307 O   0  0  0  0  0  0  0  0  0  0  0  0
   -3.1738   -3.7815   -0.1038 O   0  0  0  0  0  0  0  0  0  0  0  0
   -4.0322   -6.1013   -0.3189 O   0  0  0  0  0  0  0  0  0  0  0  0
   -5.2200   -5.7740   -0.1135 C   0  0  0  0  0  0  0  0  0  0  0  0
    2.6139   -3.1702   -0.6723 O   0  0  0  0  0  0  0  0  0  0  0  0
   -2.5584   -1.5539   -0.0625 O   0  0  0  0  0  0  0  0  0  0  0  0
    1.0201   -1.3583   -0.4178 C   0  0  0  0  0  0  0  0  0  0  0  0
   -0.2704   -0.8677   -0.2814 C   0  0  0  0  0  0  0  0  0  0  0  0
   -0.5723    0.5538   -0.3733 C   0  0  2  0  0  0  0  0  0  0  0  0
    0.5584    1.3451   -0.9934 C   0  0  0  0  0  0  0  0  0  0  0  0
    1.9293    0.9317   -0.6757 C   0  0  1  0  0  0  0  0  0  0  0  0
    2.1834   -0.4815   -0.3705 C   0  0  0  0  0  0  0  0  0  0  0  0
    2.7910    1.2359   -1.9110 C   0  0  0  0  0  0  0  0  0  0  0  0
    4.1371    1.8054   -1.7868 C   0  0  0  0  0  0  0  0  0  0  0  0
    2.3567    0.9921   -3.0194 O   0  0  0  0  0  0  0  0  0  0  0  0
    4.4922    2.1105   -0.4572 O   0  0  0  0  0  0  0  0  0  0  0  0
    5.8657    2.6262   -0.3278 C   0  0  0  0  0  0  0  0  0  0  0  0
    2.4923    1.6901    0.3543 O   0  0  0  0  0  0  0  0  0  0  0  0
   -1.1785    1.0923    0.7217 O   0  0  0  0  0  0  0  0  0  0  0  0
    6.5011    2.7398   -1.3263 O   0  0  0  0  0  0  0  0  0  0  0  0
    6.1710    2.9198    1.0877 C   0  0  0  0  0  0  0  0  0  0  0  0
    6.6621    1.7665    1.8754 C   0  0  0  0  0  0  0  0  0  0  0  0
    7.9974    1.2298    1.5648 C   0  0  0  0  0  0  0  0  0  0  0  0
    8.2507    0.7732    0.1642 C   0  0  0  0  0  0  0  0  0  0  0  0
   -2.0914    2.0894    0.4083 C   0  0  1  0  0  0  0  0  0  0  0  0
   -3.4910    1.4864    0.1443 C   0  0  0  0  0  0  0  0  0  0  0  0
   -4.5146    2.6138    0.1543 C   0  0  1  0  0  0  0  0  0  0  0  0
   -4.6362    3.0457    1.6095 C   0  0  1  0  0  0  0  0  0  0  0  0
   -3.3004    2.7235    2.2579 C   0  0  1  0  0  0  0  0  0  0  0  0
   -2.1872    2.9605    1.4441 O   0  0  0  0  0  0  0  0  0  0  0  0
   -3.1973    3.4541    3.5839 C   0  0  0  0  0  0  0  0  0  0  0  0
   -4.8785    4.4268    1.6703 O   0  0  0  0  0  0  0  0  0  0  0  0
   -4.4660    3.6422   -0.7436 N   0  0  0  0  0  0  0  0  0  0  0  0
   -4.4130    4.6477   -1.6350 C   0  0  0  0  0  0  0  0  0  0  0  0
   -4.9849    6.0428   -1.2889 C   0  0  0  0  0  0  0  0  0  0  0  0
   -3.9028    4.5739   -2.8520 O   0  0  0  0  0  0  0  0  0  0  0  0
   -6.3334    5.8372   -0.9210 F   0  0  0  0  0  0  0  0  0  0  0  0
   -4.8893    6.8802   -2.3682 F   0  0  0  0  0  0  0  0  0  0  0  0
   -4.3429    6.6072   -0.2356 F   0  0  0  0  0  0  0  0  0  0  0  0
   -1.1349   -9.2957   -1.3063 H   0  0  0  0  0  0  0  0  0  0  0  0
   -3.4028   -8.5001   -0.9933 H   0  0  0  0  0  0  0  0  0  0  0  0
    0.8199   -7.7616   -1.0761 H   0  0  0  0  0  0  0  0  0  0  0  0
   -6.0362   -6.0055   -0.8790 H   0  0  0  0  0  0  0  0  0  0  0  0
   -5.5382   -4.7199    0.2579 H   0  0  0  0  0  0  0  0  0  0  0  0
   -5.6514   -6.4536    0.7741 H   0  0  0  0  0  0  0  0  0  0  0  0
    3.4952   -2.7914   -0.7066 H   0  0  0  0  0  0  0  0  0  0  0  0
   -3.3735   -1.2649    0.0306 H   0  0  0  0  0  0  0  0  0  0  0  0
   -1.3797    0.6895   -1.2283 H   0  0  0  0  0  0  0  0  0  0  0  0
    0.4327    1.2094   -2.1415 H   0  0  0  0  0  0  0  0  0  0  0  0
    0.4303    2.4249   -0.8721 H   0  0  0  0  0  0  0  0  0  0  0  0
    2.6075   -0.5999    0.6835 H   0  0  0  0  0  0  0  0  0  0  0  0
    3.0075   -0.8925   -1.0032 H   0  0  0  0  0  0  0  0  0  0  0  0
    4.1674    2.7279   -2.4101 H   0  0  0  0  0  0  0  0  0  0  0  0
    4.8464    1.0733   -2.2525 H   0  0  0  0  0  0  0  0  0  0  0  0
    2.1780    2.6155    0.1850 H   0  0  0  0  0  0  0  0  0  0  0  0
    6.9293    3.7666    1.0703 H   0  0  0  0  0  0  0  0  0  0  0  0
    5.2758    3.3873    1.5431 H   0  0  0  0  0  0  0  0  0  0  0  0
    5.8863    0.9570    1.8583 H   0  0  0  0  0  0  0  0  0  0  0  0
    6.6724    2.1067    2.9658 H   0  0  0  0  0  0  0  0  0  0  0  0
    8.7963    1.9613    1.9202 H   0  0  0  0  0  0  0  0  0  0  0  0
    8.1235    0.3103    2.2339 H   0  0  0  0  0  0  0  0  0  0  0  0
    8.6714    1.5970   -0.4589 H   0  0  0  0  0  0  0  0  0  0  0  0
    9.0689   -0.0243    0.2569 H   0  0  0  0  0  0  0  0  0  0  0  0
    7.3444    0.3747   -0.2879 H   0  0  0  0  0  0  0  0  0  0  0  0
   -1.8315    2.5338   -0.5517 H   0  0  0  0  0  0  0  0  0  0  0  0
   -3.4803    1.0915   -0.8962 H   0  0  0  0  0  0  0  0  0  0  0  0
   -3.7081    0.7371    0.8577 H   0  0  0  0  0  0  0  0  0  0  0  0
   -5.4817    2.0124   -0.1006 H   0  0  0  0  0  0  0  0  0  0  0  0
   -5.4176    2.4529    2.0946 H   0  0  0  0  0  0  0  0  0  0  0  0
   -3.2770    1.6405    2.5092 H   0  0  0  0  0  0  0  0  0  0  0  0
   -3.9967    3.0336    4.2663 H   0  0  0  0  0  0  0  0  0  0  0  0
   -2.1837    3.3517    4.0381 H   0  0  0  0  0  0  0  0  0  0  0  0
   -3.4877    4.5023    3.4446 H   0  0  0  0  0  0  0  0  0  0  0  0
   -3.9933    4.8884    1.5550 H   0  0  0  0  0  0  0  0  0  0  0  0
   -3.5692    2.9369   -1.5290 H   0  0  0  0  0  0  0  0  0  0  0  0
 11 20  2  0
 23 25  1  0
 12 19  2  0
 25 26  1  0
 25 27  2  0
  9 12  1  0
 26 28  1  0
  2  3  1  0
 28 29  1  0
  8 13  2  0
 23 30  1  1
  3  6  2  0
 21 31  1  0
  7 14  2  0
  1  2  2  0
 29 32  2  0
  5  8  1  0
 29 33  1  0
 15 16  1  0
 33 34  1  0
  3 15  1  0
 34 35  1  0
  6  7  1  0
 35 36  1  0
 12 17  1  0
 37 31  1  0
 37 38  1  0
  7 10  1  0
 11 18  1  0
 19 20  1  0
  8  9  1  0
  4  5  2  0
 37 42  1  0
 38 39  1  0
 39 40  1  0
 40 41  1  0
 41 42  1  0
  1  4  1  0
 41 43  1  0
  9 10  2  0
 40 44  1  0
  5  6  1  0
 39 45  1  0
 10 11  1  0
 45 46  1  0
 19 24  1  0
 46 47  1  0
 20 21  1  0
 46 48  2  0
 21 22  1  0
 47 49  1  0
 22 23  1  0
 47 50  1  0
 23 24  1  0
 47 51  1  0
  1 52  1  0
  2 53  1  0
  4 54  1  0
 16 55  1  0
 16 56  1  0
 16 57  1  0
 17 58  1  0
 18 59  1  0
 21 60  1  6
 22 61  1  0
 22 62  1  0
 24 63  1  0
 24 64  1  0
 26 65  1  0
 26 66  1  0
 30 67  1  0
 33 68  1  0
 33 69  1  0
 34 70  1  0
 34 71  1  0
 35 72  1  0
 35 73  1  0
 36 74  1  0
 36 75  1  0
 36 76  1  0
 37 77  1  6
 38 78  1  0
 38 79  1  0
 39 80  1  6
 40 81  1  1
 41 82  1  1
 43 83  1  0
 43 84  1  0
 43 85  1  0
 44 86  1  0
 45 87  1  0
M  END

