46507689
     RDKit          3D

 22 22  0  0  0  0  0  0  0  0999 V2000
   -2.0067    0.9887   -0.0901 C   0  0  0  0  0  0  0  0  0  0  0  0
   -0.5784    0.7665   -0.1008 N   0  0  0  0  0  0  0  0  0  0  0  0
    0.4124    1.7820   -0.2073 C   0  0  0  0  0  0  0  0  0  0  0  0
    0.1732    2.9651   -0.5391 O   0  0  0  0  0  0  0  0  0  0  0  0
    1.7230    1.1542    0.1451 C   0  0  0  0  0  0  0  0  0  0  0  0
    1.5229   -0.2490   -0.4016 C   0  0  0  0  0  0  0  0  0  0  0  0
    0.0867   -0.5171   -0.0057 C   0  0  0  0  0  0  0  0  0  0  0  0
   -0.4687   -1.5100   -1.0026 C   0  0  0  0  0  0  0  0  0  0  0  0
    0.0090   -1.0945    1.3807 C   0  0  0  0  0  0  0  0  0  0  0  0
   -2.5440    0.1267    0.4001 H   0  0  0  0  0  0  0  0  0  0  0  0
   -2.4295    1.1796   -1.0793 H   0  0  0  0  0  0  0  0  0  0  0  0
   -2.2801    1.8779    0.5486 H   0  0  0  0  0  0  0  0  0  0  0  0
    1.7551    1.1132    1.2548 H   0  0  0  0  0  0  0  0  0  0  0  0
    2.5766    1.6654   -0.3023 H   0  0  0  0  0  0  0  0  0  0  0  0
    2.2270   -0.9568    0.0462 H   0  0  0  0  0  0  0  0  0  0  0  0
    1.5963   -0.2171   -1.5130 H   0  0  0  0  0  0  0  0  0  0  0  0
   -0.2634   -1.1647   -2.0337 H   0  0  0  0  0  0  0  0  0  0  0  0
   -1.5355   -1.7051   -0.8277 H   0  0  0  0  0  0  0  0  0  0  0  0
    0.0769   -2.4538   -0.8595 H   0  0  0  0  0  0  0  0  0  0  0  0
   -0.4432   -2.1133    1.4022 H   0  0  0  0  0  0  0  0  0  0  0  0
    1.0263   -1.1960    1.7943 H   0  0  0  0  0  0  0  0  0  0  0  0
   -0.6357   -0.4422    1.9907 H   0  0  0  0  0  0  0  0  0  0  0  0
  1  2  1  0
  2  3  1  0
  3  4  2  0
  3  5  1  0
  5  6  1  0
  6  7  1  0
  2  7  1  0
  7  8  1  0
  7  9  1  0
  1 10  1  0
  1 11  1  0
  1 12  1  0
  5 13  1  0
  5 14  1  0
  6 15  1  0
  6 16  1  0
  8 17  1  0
  8 18  1  0
  8 19  1  0
  9 20  1  0
  9 21  1  0
  9 22  1  0
M  END

