46504857
     RDKit          3D

 17 17  0  0  0  0  0  0  0  0999 V2000
   -3.0846    0.5079    0.4570 O   0  0  0  0  0  0  0  0  0  0  0  0
   -2.1642   -0.4540   -0.0041 C   0  0  0  0  0  0  0  0  0  0  0  0
   -2.5681   -1.5758   -0.3342 O   0  0  0  0  0  0  0  0  0  0  0  0
   -0.7607   -0.0401   -0.0586 C   0  0  0  0  0  0  0  0  0  0  0  0
    0.2218   -0.8799   -0.4863 C   0  0  0  0  0  0  0  0  0  0  0  0
    0.0348   -2.1680   -0.9042 O   0  0  0  0  0  0  0  0  0  0  0  0
    1.5385   -0.4288   -0.5158 C   0  0  0  0  0  0  0  0  0  0  0  0
    2.5370   -1.2778   -0.9489 O   0  0  0  0  0  0  0  0  0  0  0  0
    1.8403    0.8402   -0.1205 C   0  0  0  0  0  0  0  0  0  0  0  0
    0.8623    1.7123    0.3177 C   0  0  0  0  0  0  0  0  0  0  0  0
   -0.4223    1.2548    0.3404 C   0  0  0  0  0  0  0  0  0  0  0  0
   -3.4278    0.3277    1.4038 H   0  0  0  0  0  0  0  0  0  0  0  0
   -0.8219   -2.6266   -0.9420 H   0  0  0  0  0  0  0  0  0  0  0  0
    3.5039   -1.0156   -0.9943 H   0  0  0  0  0  0  0  0  0  0  0  0
    2.8597    1.1993   -0.1399 H   0  0  0  0  0  0  0  0  0  0  0  0
    1.0766    2.7310    0.6389 H   0  0  0  0  0  0  0  0  0  0  0  0
   -1.2253    1.8932    0.6735 H   0  0  0  0  0  0  0  0  0  0  0  0
  1  2  1  0
  2  3  2  0
  2  4  1  0
  4  5  2  0
  5  6  1  0
  5  7  1  0
  7  8  1  0
  7  9  2  0
  9 10  1  0
 10 11  2  0
  4 11  1  0
  1 12  1  0
  6 13  1  0
  8 14  1  0
  9 15  1  0
 10 16  1  0
 11 17  1  0
M  END

