46505440
     RDKit          3D

100103  0  0  1  0  0  0  0  0999 V2000
  -11.4510    0.6330   -1.1038 C   0  0  1  0  0  0  0  0  0  0  0  0
  -12.2558    1.0197   -2.1346 C   0  0  2  0  0  0  0  0  0  0  0  0
  -11.8676    1.9987   -1.1856 O   0  0  0  0  0  0  0  0  0  0  0  0
  -11.9893   -0.0150    0.1429 C   0  0  0  0  0  0  0  0  0  0  0  0
   -9.9803    0.4363   -1.3094 C   0  0  0  0  0  0  0  0  0  0  0  0
  -13.7481    0.7718   -2.0972 C   0  0  0  0  0  0  0  0  0  0  0  0
  -11.6991    1.1516   -3.5461 C   0  0  0  0  0  0  0  0  0  0  0  0
  -13.4192   -0.5038   -0.0698 C   0  0  0  0  0  0  0  0  0  0  0  0
  -11.9453    1.0042    1.2526 C   0  0  0  0  0  0  0  0  0  0  0  0
  -11.1547   -1.2008    0.5166 C   0  0  0  0  0  0  0  0  0  0  0  0
   -9.1324    0.7172   -0.3905 C   0  0  0  0  0  0  0  0  0  0  0  0
  -14.2527    0.5940   -0.7040 C   0  0  2  0  0  0  0  0  0  0  0  0
   -7.6864    0.5224   -0.6182 C   0  0  0  0  0  0  0  0  0  0  0  0
  -15.5696    0.1821   -0.7389 O   0  0  0  0  0  0  0  0  0  0  0  0
   -6.8762    0.8001    0.3482 C   0  0  0  0  0  0  0  0  0  0  0  0
   -7.2244    0.0440   -1.9353 C   0  0  0  0  0  0  0  0  0  0  0  0
   -5.5139    0.7000    0.3773 C   0  0  0  0  0  0  0  0  0  0  0  0
   -4.2931    0.6352    0.4712 C   0  0  0  0  0  0  0  0  0  0  0  0
   -3.0946    0.3117   -0.2059 C   0  0  0  0  0  0  0  0  0  0  0  0
   -1.9162    0.3707    0.4360 C   0  0  0  0  0  0  0  0  0  0  0  0
   -3.0282   -0.0796   -1.6482 C   0  0  0  0  0  0  0  0  0  0  0  0
   -0.6225    0.0962   -0.1110 C   0  0  0  0  0  0  0  0  0  0  0  0
    0.4795    0.1749    0.6486 C   0  0  0  0  0  0  0  0  0  0  0  0
    1.8158   -0.0774    0.1419 C   0  0  0  0  0  0  0  0  0  0  0  0
    2.8584   -0.0101    0.9738 C   0  0  0  0  0  0  0  0  0  0  0  0
    4.1955   -0.1177    0.4376 C   0  0  0  0  0  0  0  0  0  0  0  0
    2.5809    0.3081    2.3866 C   0  0  0  0  0  0  0  0  0  0  0  0
    5.2847   -0.0871    1.1565 C   0  0  0  0  0  0  0  0  0  0  0  0
    6.6381   -0.1819    0.5671 C   0  0  0  0  0  0  0  0  0  0  0  0
    7.7425   -0.1697    1.2947 C   0  0  0  0  0  0  0  0  0  0  0  0
    9.0288   -0.2514    0.6375 C   0  0  0  0  0  0  0  0  0  0  0  0
    7.6363   -0.0908    2.7563 C   0  0  0  0  0  0  0  0  0  0  0  0
   10.1753   -0.2615    1.2494 C   0  0  0  0  0  0  0  0  0  0  0  0
   11.5105   -0.3343    0.6115 C   0  0  2  0  0  0  0  0  0  0  0  0
   12.5609    0.5515    0.8837 C   0  0  2  0  0  0  0  0  0  0  0  0
   11.6823    0.9681   -0.1371 O   0  0  0  0  0  0  0  0  0  0  0  0
   11.8682   -1.5350   -0.1750 C   0  0  0  0  0  0  0  0  0  0  0  0
   13.8964    0.1282    0.3688 C   0  0  0  0  0  0  0  0  0  0  0  0
   12.6021    1.4478    2.1061 C   0  0  0  0  0  0  0  0  0  0  0  0
   12.6402   -1.1138   -1.4307 C   0  0  0  0  0  0  0  0  0  0  0  0
   10.6831   -2.3179   -0.6756 C   0  0  0  0  0  0  0  0  0  0  0  0
   12.7464   -2.5210    0.5707 C   0  0  0  0  0  0  0  0  0  0  0  0
   13.8340   -0.2893   -1.0908 C   0  0  2  0  0  0  0  0  0  0  0  0
   14.9845   -0.9839   -1.4417 O   0  0  0  0  0  0  0  0  0  0  0  0
   -9.6468    0.0499   -2.2482 H   0  0  0  0  0  0  0  0  0  0  0  0
  -14.0869   -0.0019   -2.7815 H   0  0  0  0  0  0  0  0  0  0  0  0
  -14.2031    1.7398   -2.4734 H   0  0  0  0  0  0  0  0  0  0  0  0
  -11.1992    2.1411   -3.6346 H   0  0  0  0  0  0  0  0  0  0  0  0
  -12.5312    1.1448   -4.2973 H   0  0  0  0  0  0  0  0  0  0  0  0
  -10.9647    0.3454   -3.7464 H   0  0  0  0  0  0  0  0  0  0  0  0
  -13.8463   -0.6798    0.9409 H   0  0  0  0  0  0  0  0  0  0  0  0
  -13.4853   -1.4257   -0.6375 H   0  0  0  0  0  0  0  0  0  0  0  0
  -11.2935    0.6188    2.0521 H   0  0  0  0  0  0  0  0  0  0  0  0
  -11.6433    2.0106    0.8913 H   0  0  0  0  0  0  0  0  0  0  0  0
  -12.9749    1.0440    1.7035 H   0  0  0  0  0  0  0  0  0  0  0  0
  -11.7991   -2.1172    0.7019 H   0  0  0  0  0  0  0  0  0  0  0  0
  -10.4187   -1.4278   -0.2984 H   0  0  0  0  0  0  0  0  0  0  0  0
  -10.5338   -0.9475    1.4107 H   0  0  0  0  0  0  0  0  0  0  0  0
   -9.5049    1.1040    0.5496 H   0  0  0  0  0  0  0  0  0  0  0  0
  -14.1626    1.5260   -0.1101 H   0  0  0  0  0  0  0  0  0  0  0  0
  -16.0845    0.7552   -0.0988 H   0  0  0  0  0  0  0  0  0  0  0  0
   -7.4440    1.1432    1.2991 H   0  0  0  0  0  0  0  0  0  0  0  0
   -7.3473   -1.0259   -2.0943 H   0  0  0  0  0  0  0  0  0  0  0  0
   -7.7838    0.5592   -2.7723 H   0  0  0  0  0  0  0  0  0  0  0  0
   -6.1468    0.2807   -2.0604 H   0  0  0  0  0  0  0  0  0  0  0  0
   -5.4276    1.9425    1.0776 H   0  0  0  0  0  0  0  0  0  0  0  0
   -4.1580    0.6725    1.6752 H   0  0  0  0  0  0  0  0  0  0  0  0
   -1.9676    0.6676    1.4945 H   0  0  0  0  0  0  0  0  0  0  0  0
   -3.8406    0.4249   -2.2292 H   0  0  0  0  0  0  0  0  0  0  0  0
   -3.1312   -1.1738   -1.7327 H   0  0  0  0  0  0  0  0  0  0  0  0
   -2.0419    0.2025   -2.0795 H   0  0  0  0  0  0  0  0  0  0  0  0
   -0.4257   -0.1906   -1.1308 H   0  0  0  0  0  0  0  0  0  0  0  0
    0.3318    0.4414    1.6855 H   0  0  0  0  0  0  0  0  0  0  0  0
    1.9765   -0.3133   -0.8973 H   0  0  0  0  0  0  0  0  0  0  0  0
    4.3144   -0.2329   -0.6533 H   0  0  0  0  0  0  0  0  0  0  0  0
    3.5089    0.4120    2.9544 H   0  0  0  0  0  0  0  0  0  0  0  0
    1.8932   -0.4130    2.8808 H   0  0  0  0  0  0  0  0  0  0  0  0
    2.1062    1.3394    2.4176 H   0  0  0  0  0  0  0  0  0  0  0  0
    5.2131    0.0070    2.2219 H   0  0  0  0  0  0  0  0  0  0  0  0
    6.7556   -0.2735   -0.5188 H   0  0  0  0  0  0  0  0  0  0  0  0
    9.0941   -0.2966   -0.4615 H   0  0  0  0  0  0  0  0  0  0  0  0
    7.2108   -1.0438    3.1857 H   0  0  0  0  0  0  0  0  0  0  0  0
    6.8771    0.6846    3.0745 H   0  0  0  0  0  0  0  0  0  0  0  0
    8.5734    0.0796    3.2948 H   0  0  0  0  0  0  0  0  0  0  0  0
   10.2046   -0.2183    2.3411 H   0  0  0  0  0  0  0  0  0  0  0  0
   14.4249   -0.5776    1.0171 H   0  0  0  0  0  0  0  0  0  0  0  0
   14.5413    1.0622    0.3837 H   0  0  0  0  0  0  0  0  0  0  0  0
   13.2053    2.3720    1.9559 H   0  0  0  0  0  0  0  0  0  0  0  0
   13.1688    0.8706    2.8808 H   0  0  0  0  0  0  0  0  0  0  0  0
   11.5947    1.6272    2.5210 H   0  0  0  0  0  0  0  0  0  0  0  0
   11.8968   -0.4842   -1.9966 H   0  0  0  0  0  0  0  0  0  0  0  0
   12.8234   -2.0054   -2.0332 H   0  0  0  0  0  0  0  0  0  0  0  0
   11.0578   -3.3671   -0.9060 H   0  0  0  0  0  0  0  0  0  0  0  0
   10.2642   -1.8855   -1.6317 H   0  0  0  0  0  0  0  0  0  0  0  0
    9.9090   -2.4865    0.0960 H   0  0  0  0  0  0  0  0  0  0  0  0
   13.7522   -2.6299    0.0683 H   0  0  0  0  0  0  0  0  0  0  0  0
   12.3450   -3.5674    0.5415 H   0  0  0  0  0  0  0  0  0  0  0  0
   12.8184   -2.2641    1.6398 H   0  0  0  0  0  0  0  0  0  0  0  0
   13.8218    0.6477   -1.7083 H   0  0  0  0  0  0  0  0  0  0  0  0
   15.6861   -0.2929   -1.5796 H   0  0  0  0  0  0  0  0  0  0  0  0
  1  2  1  0
  1  3  1  0
  1  4  1  0
  2  6  1  0
  2  7  1  6
  4  8  1  0
  4  9  1  0
  4 10  1  0
  6 12  1  0
 12 14  1  0
 34 35  1  0
 34 36  1  0
 34 37  1  0
 35 38  1  0
 35 39  1  1
 37 40  1  0
 37 41  1  0
 37 42  1  0
 38 43  1  0
 43 44  1  0
  2  3  1  0
  8 12  1  0
 35 36  1  0
 40 43  1  0
 25 27  1  0
  1  5  1  6
  5 11  2  0
 11 13  1  0
 13 15  2  0
 13 16  1  0
 15 17  1  0
 17 18  2  0
 18 19  1  0
 19 20  2  0
 19 21  1  0
 20 22  1  0
 22 23  2  0
 24 25  2  0
 23 24  1  0
 25 26  1  0
 26 28  2  0
 28 29  1  0
 29 30  2  0
 30 31  1  0
 30 32  1  0
 31 33  2  0
 34 33  1  1
  5 45  1  0
  6 46  1  0
  6 47  1  0
  7 48  1  0
  7 49  1  0
  7 50  1  0
  8 51  1  0
  8 52  1  0
  9 53  1  0
  9 54  1  0
  9 55  1  0
 10 56  1  0
 10 57  1  0
 10 58  1  0
 11 59  1  0
 12 60  1  1
 14 61  1  0
 15 62  1  0
 16 63  1  0
 16 64  1  0
 16 65  1  0
 17 66  1  0
 18 67  1  0
 20 68  1  0
 21 69  1  0
 21 70  1  0
 21 71  1  0
 22 72  1  0
 23 73  1  0
 24 74  1  0
 26 75  1  0
 27 76  1  0
 27 77  1  0
 27 78  1  0
 28 79  1  0
 29 80  1  0
 31 81  1  0
 32 82  1  0
 32 83  1  0
 32 84  1  0
 33 85  1  0
 38 86  1  0
 38 87  1  0
 39 88  1  0
 39 89  1  0
 39 90  1  0
 40 91  1  0
 40 92  1  0
 41 93  1  0
 41 94  1  0
 41 95  1  0
 42 96  1  0
 42 97  1  0
 42 98  1  0
 43 99  1  6
 44100  1  0
M  END

