46504617
     RDKit          3D

 54 53  0  0  1  0  0  0  0  0999 V2000
    1.8772    1.5246    0.1999 C   0  0  0  0  0  0  0  0  0  0  0  0
    1.8558    0.3321   -0.6667 C   0  0  2  0  0  0  0  0  0  0  0  0
    0.4259    0.1757   -1.1379 C   0  0  0  0  0  0  0  0  0  0  0  0
    0.2073    0.1737   -2.3582 O   0  0  0  0  0  0  0  0  0  0  0  0
   -0.6479    0.0339   -0.2304 N   0  0  0  0  0  0  0  0  0  0  0  0
   -2.0134   -0.1156   -0.7605 C   0  0  2  0  0  0  0  0  0  0  0  0
    2.2678   -0.9826   -0.1600 C   0  0  0  0  0  0  0  0  0  0  0  0
    3.6480   -1.1871    0.3282 C   0  0  0  0  0  0  0  0  0  0  0  0
    4.7064   -0.8735   -0.7162 C   0  0  0  0  0  0  0  0  0  0  0  0
    6.0735   -1.1254   -0.0786 C   0  0  0  0  0  0  0  0  0  0  0  0
    3.0870    1.9454    0.8045 N   0  0  0  0  0  0  0  0  0  0  0  0
    4.0220    2.8277    0.1904 C   0  0  0  0  0  0  0  0  0  0  0  0
    3.8559    3.3204   -0.9504 O   0  0  0  0  0  0  0  0  0  0  0  0
    3.3829    1.5440    2.0835 O   0  0  0  0  0  0  0  0  0  0  0  0
   -2.8431    0.9836   -0.2132 C   0  0  0  0  0  0  0  0  0  0  0  0
   -3.9548    1.5722   -0.8281 N   0  0  0  0  0  0  0  0  0  0  0  0
   -4.6969    2.6089   -0.1497 C   0  0  0  0  0  0  0  0  0  0  0  0
   -4.3675    1.1903   -2.1552 C   0  0  0  0  0  0  0  0  0  0  0  0
   -2.4820    1.4175    0.9347 O   0  0  0  0  0  0  0  0  0  0  0  0
   -2.5336   -1.4219   -0.1894 C   0  0  0  0  0  0  0  0  0  0  0  0
   -2.5654   -1.4299    1.3195 C   0  0  0  0  0  0  0  0  0  0  0  0
   -1.6786   -2.5932   -0.6363 C   0  0  0  0  0  0  0  0  0  0  0  0
   -3.9410   -1.7072   -0.6525 C   0  0  0  0  0  0  0  0  0  0  0  0
    1.1229    1.4171    1.0393 H   0  0  0  0  0  0  0  0  0  0  0  0
    1.4693    2.4415   -0.3463 H   0  0  0  0  0  0  0  0  0  0  0  0
    2.4483    0.5420   -1.6322 H   0  0  0  0  0  0  0  0  0  0  0  0
   -0.5558    0.0275    0.8064 H   0  0  0  0  0  0  0  0  0  0  0  0
   -1.9859   -0.1389   -1.8553 H   0  0  0  0  0  0  0  0  0  0  0  0
    1.5785   -1.2614    0.6818 H   0  0  0  0  0  0  0  0  0  0  0  0
    2.0465   -1.7480   -0.9501 H   0  0  0  0  0  0  0  0  0  0  0  0
    3.8817   -0.8554    1.3319 H   0  0  0  0  0  0  0  0  0  0  0  0
    3.7422   -2.3409    0.4222 H   0  0  0  0  0  0  0  0  0  0  0  0
    4.6127   -1.5428   -1.5955 H   0  0  0  0  0  0  0  0  0  0  0  0
    4.6313    0.1654   -1.0643 H   0  0  0  0  0  0  0  0  0  0  0  0
    6.0897   -0.6236    0.9240 H   0  0  0  0  0  0  0  0  0  0  0  0
    6.8627   -0.6196   -0.6670 H   0  0  0  0  0  0  0  0  0  0  0  0
    6.2467   -2.2108    0.0656 H   0  0  0  0  0  0  0  0  0  0  0  0
    4.9166    3.0871    0.7273 H   0  0  0  0  0  0  0  0  0  0  0  0
    2.6845    1.9661    2.6504 H   0  0  0  0  0  0  0  0  0  0  0  0
   -4.0247    3.1194    0.5679 H   0  0  0  0  0  0  0  0  0  0  0  0
   -5.5382    2.1889    0.4404 H   0  0  0  0  0  0  0  0  0  0  0  0
   -5.0704    3.3782   -0.8755 H   0  0  0  0  0  0  0  0  0  0  0  0
   -5.4815    0.9964   -2.2117 H   0  0  0  0  0  0  0  0  0  0  0  0
   -3.7835    0.3988   -2.6217 H   0  0  0  0  0  0  0  0  0  0  0  0
   -4.2662    2.1456   -2.7668 H   0  0  0  0  0  0  0  0  0  0  0  0
   -3.2428   -0.6496    1.6781 H   0  0  0  0  0  0  0  0  0  0  0  0
   -3.0355   -2.4044    1.6032 H   0  0  0  0  0  0  0  0  0  0  0  0
   -1.5625   -1.4308    1.7903 H   0  0  0  0  0  0  0  0  0  0  0  0
   -0.7702   -2.6955   -0.0103 H   0  0  0  0  0  0  0  0  0  0  0  0
   -1.5004   -2.5920   -1.7172 H   0  0  0  0  0  0  0  0  0  0  0  0
   -2.3038   -3.5097   -0.4156 H   0  0  0  0  0  0  0  0  0  0  0  0
   -4.2621   -2.7018   -0.2055 H   0  0  0  0  0  0  0  0  0  0  0  0
   -3.9704   -1.7956   -1.7540 H   0  0  0  0  0  0  0  0  0  0  0  0
   -4.6652   -0.9667   -0.2952 H   0  0  0  0  0  0  0  0  0  0  0  0
  1  2  1  0
  1 11  1  0
  2  3  1  0
  2  7  1  0
  3  4  2  0
  3  5  1  0
  6  5  1  0
  6 15  1  0
  6 20  1  0
  7  8  1  0
  8  9  1  0
  9 10  1  0
 11 12  1  0
 11 14  1  0
 12 13  2  0
 15 16  1  0
 15 19  2  0
 16 17  1  0
 16 18  1  0
 20 21  1  0
 20 22  1  0
 20 23  1  0
  1 24  1  0
  1 25  1  0
  2 26  1  6
  5 27  1  0
  6 28  1  6
  7 29  1  0
  7 30  1  0
  8 31  1  0
  8 32  1  0
  9 33  1  0
  9 34  1  0
 10 35  1  0
 10 36  1  0
 10 37  1  0
 12 38  1  0
 14 39  1  0
 17 40  1  0
 17 41  1  0
 17 42  1  0
 18 43  1  0
 18 44  1  0
 18 45  1  0
 21 46  1  0
 21 47  1  0
 21 48  1  0
 22 49  1  0
 22 50  1  0
 22 51  1  0
 23 52  1  0
 23 53  1  0
 23 54  1  0
M  END

