46508662
     RDKit          3D

 38 40  0  0  0  0  0  0  0  0999 V2000
    4.8945    1.0571    0.3675 C   0  0  0  0  0  0  0  0  0  0  0  0
    3.4054    0.9665    0.2822 C   0  0  0  0  0  0  0  0  0  0  0  0
    2.6350    2.1011    0.3680 C   0  0  0  0  0  0  0  0  0  0  0  0
    1.3052    1.9348    0.2824 N   0  0  0  0  0  0  0  0  0  0  0  0
    0.7192    0.7361    0.1209 C   0  0  0  0  0  0  0  0  0  0  0  0
    1.4614   -0.4336    0.0300 C   0  0  0  0  0  0  0  0  0  0  0  0
    2.8318   -0.3011    0.1137 C   0  0  0  0  0  0  0  0  0  0  0  0
    0.9010   -1.6762   -0.1385 C   0  0  0  0  0  0  0  0  0  0  0  0
    1.6502   -2.9207   -0.2200 C   0  0  0  0  0  0  0  0  0  0  0  0
   -0.4855   -1.7589   -0.2232 C   0  0  0  0  0  0  0  0  0  0  0  0
   -1.1462   -3.0501   -0.4226 C   0  0  0  0  0  0  0  0  0  0  0  0
   -1.2476   -0.6154   -0.1357 C   0  0  0  0  0  0  0  0  0  0  0  0
   -0.6467    0.6436    0.0376 C   0  0  0  0  0  0  0  0  0  0  0  0
   -1.3918    1.7547    0.1253 N   0  0  0  0  0  4  0  0  0  0  0  0
   -0.8076    3.0545    0.3019 C   0  0  0  0  0  0  0  0  0  0  0  0
   -2.7450    1.5870    0.0376 C   0  0  0  0  0  0  0  0  0  0  0  0
   -3.3749    0.4047   -0.1280 C   0  0  0  0  0  0  0  0  0  0  0  0
   -4.8533    0.3113   -0.2135 C   0  0  0  0  0  0  0  0  0  0  0  0
   -2.6138   -0.7408   -0.2189 C   0  0  0  0  0  0  0  0  0  0  0  0
    5.3208    1.4207   -0.5820 H   0  0  0  0  0  0  0  0  0  0  0  0
    5.3097    0.0890    0.6596 H   0  0  0  0  0  0  0  0  0  0  0  0
    5.1130    1.7840    1.1797 H   0  0  0  0  0  0  0  0  0  0  0  0
    3.1211    3.0459    0.4966 H   0  0  0  0  0  0  0  0  0  0  0  0
    3.4710   -1.1689    0.0460 H   0  0  0  0  0  0  0  0  0  0  0  0
    1.1845   -3.7392    0.4239 H   0  0  0  0  0  0  0  0  0  0  0  0
    2.6926   -2.8946    0.1196 H   0  0  0  0  0  0  0  0  0  0  0  0
    1.5619   -3.3159   -1.2712 H   0  0  0  0  0  0  0  0  0  0  0  0
   -0.3657   -3.7751   -0.8079 H   0  0  0  0  0  0  0  0  0  0  0  0
   -1.8952   -3.0554   -1.2530 H   0  0  0  0  0  0  0  0  0  0  0  0
   -1.5348   -3.5155    0.5057 H   0  0  0  0  0  0  0  0  0  0  0  0
   -0.2429    3.4402   -0.5667 H   0  0  0  0  0  0  0  0  0  0  0  0
   -0.3374    3.2291    1.2876 H   0  0  0  0  0  0  0  0  0  0  0  0
   -1.6869    3.7840    0.3417 H   0  0  0  0  0  0  0  0  0  0  0  0
   -3.3556    2.4799    0.1074 H   0  0  0  0  0  0  0  0  0  0  0  0
   -5.2502    0.7885   -1.1351 H   0  0  0  0  0  0  0  0  0  0  0  0
   -5.3561    0.8152    0.6497 H   0  0  0  0  0  0  0  0  0  0  0  0
   -5.1902   -0.7475   -0.2214 H   0  0  0  0  0  0  0  0  0  0  0  0
   -3.0511   -1.7192   -0.3472 H   0  0  0  0  0  0  0  0  0  0  0  0
  1  2  1  0
  2  3  2  0
  3  4  1  0
  4  5  2  0
  5  6  1  0
  6  7  2  0
  2  7  1  0
  6  8  1  0
  8  9  1  0
  8 10  2  0
 10 11  1  0
 10 12  1  0
 12 13  2  0
  5 13  1  0
 13 14  1  0
 14 15  1  0
 14 16  2  0
 16 17  1  0
 17 18  1  0
 17 19  2  0
 12 19  1  0
  1 20  1  0
  1 21  1  0
  1 22  1  0
  3 23  1  0
  7 24  1  0
  9 25  1  0
  9 26  1  0
  9 27  1  0
 11 28  1  0
 11 29  1  0
 11 30  1  0
 15 31  1  0
 15 32  1  0
 15 33  1  0
 16 34  1  0
 18 35  1  0
 18 36  1  0
 18 37  1  0
 19 38  1  0
M  CHG  1  14   1
M  END

