46508441
     RDKit          3D

 70 72  0  0  1  0  0  0  0  0999 V2000
   -0.6699   -0.3566   -1.3993 O   0  0  0  0  0  0  0  0  0  0  0  0
    2.1491    2.7481   -0.8610 O   0  0  0  0  0  0  0  0  0  0  0  0
    7.3191   -0.5185    0.8514 O   0  0  0  0  0  0  0  0  0  0  0  0
    6.7784   -0.9086   -1.8158 O   0  0  0  0  0  0  0  0  0  0  0  0
    2.6304    3.3156    1.2989 O   0  0  0  0  0  0  0  0  0  0  0  0
   -3.3336   -2.9003   -1.0787 O   0  0  0  0  0  0  0  0  0  0  0  0
   -1.6425   -2.4065    0.2871 O   0  0  0  0  0  0  0  0  0  0  0  0
    1.0484    0.4669   -0.1434 N   0  0  0  0  0  0  0  0  0  0  0  0
   -2.7377    0.4173    0.3200 N   0  0  0  0  0  0  0  0  0  0  0  0
    1.5394    1.1929    0.9920 C   0  0  1  0  0  0  0  0  0  0  0  0
    2.6202    0.4029    1.7302 C   0  0  0  0  0  0  0  0  0  0  0  0
    2.0007   -0.0150   -1.1216 C   0  0  0  0  0  0  0  0  0  0  0  0
    3.6946    0.0415    0.7424 C   0  0  0  0  0  0  0  0  0  0  0  0
    3.3660   -0.1421   -0.5854 C   0  0  0  0  0  0  0  0  0  0  0  0
   -1.3787    0.6059    0.6661 C   0  0  2  0  0  0  0  0  0  0  0  0
   -0.3708    0.2153   -0.3271 C   0  0  0  0  0  0  0  0  0  0  0  0
   -3.4272   -0.7432    0.1900 C   0  0  1  0  0  0  0  0  0  0  0  0
    4.9706   -0.0752    1.2353 C   0  0  0  0  0  0  0  0  0  0  0  0
    2.1418    2.4873    0.4879 C   0  0  0  0  0  0  0  0  0  0  0  0
    4.4300   -0.4615   -1.4176 C   0  0  0  0  0  0  0  0  0  0  0  0
   -4.7007   -0.6449   -0.6767 C   0  0  0  0  0  0  0  0  0  0  0  0
   -1.0619   -0.0472    2.0068 C   0  0  0  0  0  0  0  0  0  0  0  0
    6.0220   -0.3949    0.3842 C   0  0  0  0  0  0  0  0  0  0  0  0
    5.7299   -0.5888   -0.9653 C   0  0  0  0  0  0  0  0  0  0  0  0
   -5.7088    0.2716   -0.1320 C   0  0  0  0  0  0  0  0  0  0  0  0
   -2.7557   -1.9786   -0.1494 C   0  0  0  0  0  0  0  0  0  0  0  0
   -5.3867    1.6654    0.0984 C   0  0  0  0  0  0  0  0  0  0  0  0
   -4.9247    2.0149    1.3845 C   0  0  0  0  0  0  0  0  0  0  0  0
   -5.4864    2.6815   -0.8002 C   0  0  0  0  0  0  0  0  0  0  0  0
    7.5884   -0.3135    2.2253 C   0  0  0  0  0  0  0  0  0  0  0  0
    6.5097   -1.1062   -3.1780 C   0  0  0  0  0  0  0  0  0  0  0  0
   -2.7138   -4.1114   -1.4265 C   0  0  0  0  0  0  0  0  0  0  0  0
   -4.5968    3.3071    1.7044 C   0  0  0  0  0  0  0  0  0  0  0  0
   -5.1656    3.9881   -0.5119 C   0  0  0  0  0  0  0  0  0  0  0  0
   -4.7099    4.3207    0.7635 C   0  0  0  0  0  0  0  0  0  0  0  0
   -2.5084   -5.0165   -0.2430 C   0  0  0  0  0  0  0  0  0  0  0  0
    1.8371    3.6034   -1.2730 H   0  0  0  0  0  0  0  0  0  0  0  0
   -3.0142    1.1638   -0.4282 H   0  0  0  0  0  0  0  0  0  0  0  0
    0.8125    1.4940    1.7352 H   0  0  0  0  0  0  0  0  0  0  0  0
    2.9990    1.0440    2.5398 H   0  0  0  0  0  0  0  0  0  0  0  0
    2.1672   -0.5479    2.0506 H   0  0  0  0  0  0  0  0  0  0  0  0
    1.6481   -0.9488   -1.6156 H   0  0  0  0  0  0  0  0  0  0  0  0
    2.0808    0.7234   -1.9794 H   0  0  0  0  0  0  0  0  0  0  0  0
   -1.2373    1.7009    0.8395 H   0  0  0  0  0  0  0  0  0  0  0  0
   -3.8455   -0.9894    1.2648 H   0  0  0  0  0  0  0  0  0  0  0  0
    5.2087    0.0740    2.2815 H   0  0  0  0  0  0  0  0  0  0  0  0
    4.2692   -0.6240   -2.4685 H   0  0  0  0  0  0  0  0  0  0  0  0
   -5.1334   -1.6878   -0.6054 H   0  0  0  0  0  0  0  0  0  0  0  0
   -4.4181   -0.5086   -1.7181 H   0  0  0  0  0  0  0  0  0  0  0  0
   -0.9699    0.6725    2.8393 H   0  0  0  0  0  0  0  0  0  0  0  0
   -0.1644   -0.6648    1.9518 H   0  0  0  0  0  0  0  0  0  0  0  0
   -1.9019   -0.7052    2.3372 H   0  0  0  0  0  0  0  0  0  0  0  0
   -6.6369    0.2735   -0.7849 H   0  0  0  0  0  0  0  0  0  0  0  0
   -6.0993   -0.1408    0.8521 H   0  0  0  0  0  0  0  0  0  0  0  0
   -4.8188    1.2632    2.1553 H   0  0  0  0  0  0  0  0  0  0  0  0
   -5.8400    2.4356   -1.7929 H   0  0  0  0  0  0  0  0  0  0  0  0
    7.5256    0.7308    2.5497 H   0  0  0  0  0  0  0  0  0  0  0  0
    6.9233   -0.9234    2.8733 H   0  0  0  0  0  0  0  0  0  0  0  0
    8.6253   -0.6954    2.4232 H   0  0  0  0  0  0  0  0  0  0  0  0
    5.8550   -1.9866   -3.2920 H   0  0  0  0  0  0  0  0  0  0  0  0
    7.4565   -1.3186   -3.7463 H   0  0  0  0  0  0  0  0  0  0  0  0
    6.0305   -0.2263   -3.6590 H   0  0  0  0  0  0  0  0  0  0  0  0
   -3.4455   -4.6305   -2.1153 H   0  0  0  0  0  0  0  0  0  0  0  0
   -1.8252   -3.9120   -2.0144 H   0  0  0  0  0  0  0  0  0  0  0  0
   -4.2363    3.6051    2.6883 H   0  0  0  0  0  0  0  0  0  0  0  0
   -5.2645    4.7556   -1.2675 H   0  0  0  0  0  0  0  0  0  0  0  0
   -4.4587    5.3333    0.9994 H   0  0  0  0  0  0  0  0  0  0  0  0
   -1.4237   -5.0902   -0.0712 H   0  0  0  0  0  0  0  0  0  0  0  0
   -3.0748   -4.6495    0.6348 H   0  0  0  0  0  0  0  0  0  0  0  0
   -2.8893   -6.0366   -0.4621 H   0  0  0  0  0  0  0  0  0  0  0  0
  1 16  2  0
  2 19  1  0
  3 23  1  0
  3 30  1  0
  4 24  1  0
  4 31  1  0
  5 19  2  0
  6 26  1  0
  6 32  1  0
  7 26  2  0
  8 10  1  0
  8 12  1  0
  8 16  1  0
 15  9  1  0
 17  9  1  0
 10 11  1  0
 10 19  1  0
 11 13  1  0
 12 14  1  0
 13 14  2  0
 13 18  1  0
 14 20  1  0
 15 16  1  0
 15 22  1  0
 17 21  1  0
 17 26  1  0
 18 23  2  0
 20 24  2  0
 21 25  1  0
 23 24  1  0
 25 27  1  0
 27 28  2  0
 27 29  1  0
 28 33  1  0
 29 34  2  0
 32 36  1  0
 33 35  2  0
 34 35  1  0
  2 37  1  0
  9 38  1  0
 10 39  1  1
 11 40  1  0
 11 41  1  0
 12 42  1  0
 12 43  1  0
 15 44  1  1
 17 45  1  1
 18 46  1  0
 20 47  1  0
 21 48  1  0
 21 49  1  0
 22 50  1  0
 22 51  1  0
 22 52  1  0
 25 53  1  0
 25 54  1  0
 28 55  1  0
 29 56  1  0
 30 57  1  0
 30 58  1  0
 30 59  1  0
 31 60  1  0
 31 61  1  0
 31 62  1  0
 32 63  1  0
 32 64  1  0
 33 65  1  0
 34 66  1  0
 35 67  1  0
 36 68  1  0
 36 69  1  0
 36 70  1  0
M  END

