46508534
     RDKit          3D

 25 24  0  0  1  0  0  0  0  0999 V2000
   -1.5834    1.0502    0.2803 C   0  0  0  0  0  0  0  0  0  0  0  0
   -1.8237    1.9064   -0.7758 O   0  0  0  0  0  0  0  0  0  0  0  0
   -1.7763    1.4331    1.4404 O   0  0  0  0  0  0  0  0  0  0  0  0
   -1.0972   -0.3152   -0.0016 C   0  0  1  0  0  0  0  0  0  0  0  0
   -0.9584   -0.5020   -1.4212 N   0  0  0  0  0  0  0  0  0  0  0  0
    0.2101   -0.5521    0.7279 C   0  0  0  0  0  0  0  0  0  0  0  0
    1.2516    0.4281    0.2865 C   0  0  0  0  0  0  0  0  0  0  0  0
    2.5263    0.1375    1.0500 C   0  0  0  0  0  0  0  0  0  0  0  0
    1.5586    0.2844   -1.1914 C   0  0  0  0  0  0  0  0  0  0  0  0
   -2.1540   -1.2983    0.4921 C   0  0  0  0  0  0  0  0  0  0  0  0
   -1.1327    2.6204   -0.9858 H   0  0  0  0  0  0  0  0  0  0  0  0
   -1.4689   -1.3496   -1.7704 H   0  0  0  0  0  0  0  0  0  0  0  0
   -1.3618    0.3160   -1.9622 H   0  0  0  0  0  0  0  0  0  0  0  0
    0.5329   -1.5877    0.5511 H   0  0  0  0  0  0  0  0  0  0  0  0
    0.0424   -0.4264    1.8092 H   0  0  0  0  0  0  0  0  0  0  0  0
    0.9052    1.4474    0.5199 H   0  0  0  0  0  0  0  0  0  0  0  0
    2.7090    0.9281    1.8090 H   0  0  0  0  0  0  0  0  0  0  0  0
    3.3961    0.1088    0.3731 H   0  0  0  0  0  0  0  0  0  0  0  0
    2.4821   -0.8254    1.5828 H   0  0  0  0  0  0  0  0  0  0  0  0
    0.9347    0.9829   -1.7586 H   0  0  0  0  0  0  0  0  0  0  0  0
    1.4057   -0.7339   -1.5671 H   0  0  0  0  0  0  0  0  0  0  0  0
    2.6176    0.5662   -1.3785 H   0  0  0  0  0  0  0  0  0  0  0  0
   -2.3013   -1.1218    1.5942 H   0  0  0  0  0  0  0  0  0  0  0  0
   -3.0775   -1.1577   -0.0785 H   0  0  0  0  0  0  0  0  0  0  0  0
   -1.8373   -2.3394    0.3748 H   0  0  0  0  0  0  0  0  0  0  0  0
  1  2  1  0
  1  3  2  0
  4  1  1  6
  4  5  1  0
  4  6  1  0
  6  7  1  0
  7  8  1  0
  7  9  1  0
  4 10  1  0
  2 11  1  0
  5 12  1  0
  5 13  1  0
  6 14  1  0
  6 15  1  0
  7 16  1  0
  8 17  1  0
  8 18  1  0
  8 19  1  0
  9 20  1  0
  9 21  1  0
  9 22  1  0
 10 23  1  0
 10 24  1  0
 10 25  1  0
M  END

