46508773
     RDKit          3D

 87 92  0  0  1  0  0  0  0  0999 V2000
    8.4490    3.4604   -0.4185 N   0  0  0  0  0  0  0  0  0  0  0  0
    8.0779    2.1666    0.0978 C   0  0  0  0  0  0  0  0  0  0  0  0
    9.0187    1.3579    0.2393 O   0  0  0  0  0  0  0  0  0  0  0  0
    6.6722    1.9521    0.3911 C   0  0  0  0  0  0  0  0  0  0  0  0
    6.2510    0.5788    0.7639 C   0  0  1  0  0  0  0  0  0  0  0  0
    4.7385    0.5470    1.0991 C   0  0  0  0  0  0  0  0  0  0  0  0
    4.5427   -0.9600    1.0990 C   0  0  1  0  0  0  0  0  0  0  0  0
    3.0854   -1.2978    1.0885 C   0  0  0  0  0  0  0  0  0  0  0  0
    2.4812   -2.0997    1.9402 C   0  0  0  0  0  0  0  0  0  0  0  0
    1.1066   -2.2137    1.6679 N   0  0  0  0  0  0  0  0  0  0  0  0
    0.7955   -1.4456    0.4977 C   0  0  2  0  0  0  0  0  0  0  0  0
   -0.1903   -0.3584    0.8892 C   0  0  0  0  0  0  0  0  0  0  0  0
   -1.3820   -0.9490    1.5423 C   0  0  2  0  0  0  0  0  0  0  0  0
   -2.1278   -1.8607    0.8681 O   0  0  0  0  0  0  0  0  0  0  0  0
   -2.3440    0.1699    1.9971 C   0  0  2  0  0  0  0  0  0  0  0  0
   -3.3565   -0.3045    2.9874 C   0  0  0  0  0  0  0  0  0  0  0  0
   -4.2679    0.7441    3.4718 C   0  0  0  0  0  0  0  0  0  0  0  0
   -3.8062    1.5266    4.5205 C   0  0  0  0  0  0  0  0  0  0  0  0
   -4.5727    2.5246    5.0735 C   0  0  0  0  0  0  0  0  0  0  0  0
   -5.8273    2.7492    4.5736 C   0  0  0  0  0  0  0  0  0  0  0  0
   -6.2919    1.9820    3.5404 C   0  0  0  0  0  0  0  0  0  0  0  0
   -5.5062    0.9661    2.9793 C   0  0  0  0  0  0  0  0  0  0  0  0
   -2.9726    0.7798    0.8625 N   0  0  0  0  0  0  0  0  0  0  0  0
   -4.0135    0.2280    0.1114 C   0  0  0  0  0  0  0  0  0  0  0  0
   -4.4912   -0.8823    0.3833 O   0  0  0  0  0  0  0  0  0  0  0  0
   -4.5964    0.8570   -0.9849 O   0  0  0  0  0  0  0  0  0  0  0  0
   -5.6181    0.3767   -1.7477 C   0  0  1  0  0  0  0  0  0  0  0  0
   -6.8191    1.2417   -1.9270 C   0  0  0  0  0  0  0  0  0  0  0  0
   -7.4922    0.5081   -3.0945 C   0  0  0  0  0  0  0  0  0  0  0  0
   -6.5239   -0.2565   -3.7085 O   0  0  0  0  0  0  0  0  0  0  0  0
   -5.2799    0.0934   -3.1984 C   0  0  0  0  0  0  0  0  0  0  0  0
    0.4118   -2.3042   -0.6270 C   0  0  0  0  0  0  0  0  0  0  0  0
    0.1538   -1.6564   -1.9281 C   0  0  0  0  0  0  0  0  0  0  0  0
   -1.0714   -1.1771   -2.2630 C   0  0  0  0  0  0  0  0  0  0  0  0
   -1.3371   -0.5599   -3.4981 C   0  0  0  0  0  0  0  0  0  0  0  0
   -0.3025   -0.4487   -4.3828 C   0  0  0  0  0  0  0  0  0  0  0  0
    0.9372   -0.9294   -4.0542 C   0  0  0  0  0  0  0  0  0  0  0  0
    1.1898   -1.5303   -2.8484 C   0  0  0  0  0  0  0  0  0  0  0  0
    2.1023   -0.7998    0.1568 C   0  0  0  0  0  0  0  0  0  0  0  0
    2.3713    0.0274   -0.7498 O   0  0  0  0  0  0  0  0  0  0  0  0
    5.2127   -1.3259   -0.1601 C   0  0  0  0  0  0  0  0  0  0  0  0
    5.0396   -2.3122   -1.1023 C   0  0  0  0  0  0  0  0  0  0  0  0
    5.8127   -2.4110   -2.2376 C   0  0  0  0  0  0  0  0  0  0  0  0
    6.8050   -1.4882   -2.4523 C   0  0  0  0  0  0  0  0  0  0  0  0
    6.9952   -0.4802   -1.5050 C   0  0  0  0  0  0  0  0  0  0  0  0
    6.2255   -0.3915   -0.3831 C   0  0  0  0  0  0  0  0  0  0  0  0
    8.1074    4.2874    0.1009 H   0  0  0  0  0  0  0  0  0  0  0  0
    9.0285    3.5698   -1.2677 H   0  0  0  0  0  0  0  0  0  0  0  0
    6.4110    2.6236    1.2641 H   0  0  0  0  0  0  0  0  0  0  0  0
    6.0586    2.3463   -0.4509 H   0  0  0  0  0  0  0  0  0  0  0  0
    6.8516    0.1281    1.5633 H   0  0  0  0  0  0  0  0  0  0  0  0
    4.5331    1.0190    2.0582 H   0  0  0  0  0  0  0  0  0  0  0  0
    4.2503    0.9907    0.2220 H   0  0  0  0  0  0  0  0  0  0  0  0
    5.0249   -1.3870    1.9671 H   0  0  0  0  0  0  0  0  0  0  0  0
    3.0289   -2.6051    2.7616 H   0  0  0  0  0  0  0  0  0  0  0  0
    0.3857   -2.7643    2.2042 H   0  0  0  0  0  0  0  0  0  0  0  0
   -0.3891    0.3094    0.0587 H   0  0  0  0  0  0  0  0  0  0  0  0
    0.3405    0.2546    1.6659 H   0  0  0  0  0  0  0  0  0  0  0  0
   -1.0956   -1.4449    2.5256 H   0  0  0  0  0  0  0  0  0  0  0  0
   -2.4272   -2.6410    1.4081 H   0  0  0  0  0  0  0  0  0  0  0  0
   -1.7152    0.9108    2.5538 H   0  0  0  0  0  0  0  0  0  0  0  0
   -2.7782   -0.7604    3.8337 H   0  0  0  0  0  0  0  0  0  0  0  0
   -4.0062   -1.1395    2.6204 H   0  0  0  0  0  0  0  0  0  0  0  0
   -2.7998    1.3558    4.9317 H   0  0  0  0  0  0  0  0  0  0  0  0
   -4.1503    3.1058    5.8975 H   0  0  0  0  0  0  0  0  0  0  0  0
   -6.3959    3.5460    5.0373 H   0  0  0  0  0  0  0  0  0  0  0  0
   -7.2956    2.1811    3.1631 H   0  0  0  0  0  0  0  0  0  0  0  0
   -5.9744    0.4191    2.1827 H   0  0  0  0  0  0  0  0  0  0  0  0
   -2.5840    1.7459    0.5905 H   0  0  0  0  0  0  0  0  0  0  0  0
   -5.9586   -0.6019   -1.3428 H   0  0  0  0  0  0  0  0  0  0  0  0
   -7.4678    1.3669   -1.0636 H   0  0  0  0  0  0  0  0  0  0  0  0
   -6.5914    2.2503   -2.3281 H   0  0  0  0  0  0  0  0  0  0  0  0
   -7.9225    1.2255   -3.8319 H   0  0  0  0  0  0  0  0  0  0  0  0
   -8.3311   -0.0476   -2.6706 H   0  0  0  0  0  0  0  0  0  0  0  0
   -4.6311   -0.8094   -3.3034 H   0  0  0  0  0  0  0  0  0  0  0  0
   -4.8674    0.9371   -3.7429 H   0  0  0  0  0  0  0  0  0  0  0  0
   -0.4673   -2.9231   -0.3537 H   0  0  0  0  0  0  0  0  0  0  0  0
    1.2305   -3.0584   -0.8182 H   0  0  0  0  0  0  0  0  0  0  0  0
   -1.9410   -1.2495   -1.5873 H   0  0  0  0  0  0  0  0  0  0  0  0
   -2.3420   -0.2006   -3.6956 H   0  0  0  0  0  0  0  0  0  0  0  0
   -0.4578    0.0203   -5.3492 H   0  0  0  0  0  0  0  0  0  0  0  0
    1.7875   -0.8453   -4.7627 H   0  0  0  0  0  0  0  0  0  0  0  0
    2.1637   -1.9279   -2.5779 H   0  0  0  0  0  0  0  0  0  0  0  0
    4.2594   -3.0452   -0.9471 H   0  0  0  0  0  0  0  0  0  0  0  0
    5.6317   -3.2222   -2.9581 H   0  0  0  0  0  0  0  0  0  0  0  0
    7.4123   -1.5657   -3.3509 H   0  0  0  0  0  0  0  0  0  0  0  0
    7.7994    0.2005   -1.7781 H   0  0  0  0  0  0  0  0  0  0  0  0
  1  2  1  0
  2  3  2  0
  2  4  1  0
  5  4  1  0
  5  6  1  0
  6  7  1  0
  7  8  1  0
  8  9  2  0
  9 10  1  0
 10 11  1  0
 11 12  1  1
 12 13  1  0
 13 14  1  0
 13 15  1  0
 15 16  1  0
 16 17  1  0
 17 18  2  0
 18 19  1  0
 19 20  2  0
 20 21  1  0
 21 22  2  0
 17 22  1  0
 15 23  1  0
 23 24  1  0
 24 25  2  0
 24 26  1  0
 27 26  1  0
 27 28  1  0
 28 29  1  0
 29 30  1  0
 30 31  1  0
 27 31  1  0
 11 32  1  0
 32 33  1  0
 33 34  2  0
 34 35  1  0
 35 36  2  0
 36 37  1  0
 37 38  2  0
 33 38  1  0
 11 39  1  0
  8 39  1  0
 39 40  2  0
  7 41  1  0
 41 42  2  0
 42 43  1  0
 43 44  2  0
 44 45  1  0
 45 46  2  0
  5 46  1  0
 41 46  1  0
  1 47  1  0
  1 48  1  0
  4 49  1  0
  4 50  1  0
  5 51  1  1
  6 52  1  0
  6 53  1  0
  7 54  1  1
  9 55  1  0
 10 56  1  0
 12 57  1  0
 12 58  1  0
 13 59  1  1
 14 60  1  0
 15 61  1  1
 16 62  1  0
 16 63  1  0
 18 64  1  0
 19 65  1  0
 20 66  1  0
 21 67  1  0
 22 68  1  0
 23 69  1  0
 27 70  1  1
 28 71  1  0
 28 72  1  0
 29 73  1  0
 29 74  1  0
 31 75  1  0
 31 76  1  0
 32 77  1  0
 32 78  1  0
 34 79  1  0
 35 80  1  0
 36 81  1  0
 37 82  1  0
 38 83  1  0
 42 84  1  0
 43 85  1  0
 44 86  1  0
 45 87  1  0
M  END

