46509041
     RDKit          3D

 81 84  0  0  1  0  0  0  0  0999 V2000
   -4.8783   -0.8806   -2.6095 C   0  0  0  0  0  0  0  0  0  0  0  0
   -6.1244   -0.1873   -2.3532 C   0  0  0  0  0  0  0  0  0  0  0  0
   -6.1949    0.5165   -1.2244 C   0  0  0  0  0  0  0  0  0  0  0  0
   -5.0579    0.5873   -0.2783 C   0  0  2  0  0  0  0  0  0  0  0  0
   -4.3822   -0.7835   -0.1727 C   0  0  2  0  0  0  0  0  0  0  0  0
   -3.2692   -0.7257    0.8027 C   0  0  0  0  0  0  0  0  0  0  0  0
   -1.9838   -1.4133    0.3411 C   0  0  2  0  0  0  0  0  0  0  0  0
   -0.9710   -1.3069    1.3914 C   0  0  0  0  0  0  0  0  0  0  0  0
    0.3988   -0.9351    1.0347 C   0  0  0  0  0  0  0  0  0  0  0  0
    1.3552   -1.0307    2.0561 C   0  0  0  0  0  0  0  0  0  0  0  0
    2.6457   -0.6752    1.7980 C   0  0  0  0  0  0  0  0  0  0  0  0
    3.0356   -0.2268    0.5680 C   0  0  0  0  0  0  0  0  0  0  0  0
    2.0593   -0.1357   -0.4541 C   0  0  0  0  0  0  0  0  0  0  0  0
    0.7435   -0.4911   -0.2169 C   0  0  0  0  0  0  0  0  0  0  0  0
   -0.2689   -0.4358   -1.2659 C   0  0  0  0  0  0  0  0  0  0  0  0
   -1.6361   -0.8558   -0.9755 C   0  0  0  0  0  0  0  0  0  0  0  0
   -2.5991   -0.7723   -1.8883 C   0  0  0  0  0  0  0  0  0  0  0  0
   -3.9621   -1.2485   -1.5217 C   0  0  2  0  0  0  0  0  0  0  0  0
   -7.2425   -0.2577   -3.2850 C   0  0  0  0  0  0  0  0  0  0  0  0
   -7.1138   -0.9363   -4.3279 O   0  0  0  0  0  0  0  0  0  0  0  0
   -8.4497    0.4311   -3.0112 N   0  0  0  0  0  0  0  0  0  0  0  0
    0.0113   -0.0347   -2.4113 O   0  0  0  0  0  0  0  0  0  0  0  0
   -4.5937   -1.1656   -3.8077 O   0  0  0  0  0  0  0  0  0  0  0  0
   -3.9794   -2.6650   -1.4781 O   0  0  0  0  0  0  0  0  0  0  0  0
   -2.3024   -0.2499   -3.1364 O   0  0  0  0  0  0  0  0  0  0  0  0
    2.4574    0.3121   -1.6738 O   0  0  0  0  0  0  0  0  0  0  0  0
   -7.3501    1.1932   -0.9301 O   0  0  0  0  0  0  0  0  0  0  0  0
    4.3568    0.1527    0.2436 N   0  0  0  0  0  0  0  0  0  0  0  0
    0.9995   -1.4889    3.3463 N   0  0  0  0  0  0  0  0  0  0  0  0
    0.0393   -0.8670    4.2218 C   0  0  0  0  0  0  0  0  0  0  0  0
    1.6807   -2.6983    3.8032 C   0  0  0  0  0  0  0  0  0  0  0  0
   -5.4336    1.0750    1.0134 N   0  0  0  0  0  0  0  0  0  0  0  0
   -5.9329    2.4359    0.9713 C   0  0  0  0  0  0  0  0  0  0  0  0
   -6.3579    0.1895    1.6971 C   0  0  0  0  0  0  0  0  0  0  0  0
    5.4738    0.1429    1.0775 C   0  0  0  0  0  0  0  0  0  0  0  0
    6.8088    0.5883    0.5368 C   0  0  0  0  0  0  0  0  0  0  0  0
    5.4519   -0.2148    2.2670 O   0  0  0  0  0  0  0  0  0  0  0  0
    6.7369    0.9737   -0.8457 N   0  0  0  0  0  0  0  0  0  0  0  0
    8.0066    1.4290   -1.3644 C   0  0  0  0  0  0  0  0  0  0  0  0
    8.9885    0.3029   -1.2944 C   0  0  0  0  0  0  0  0  0  0  0  0
    8.5144    2.6659   -0.7158 C   0  0  0  0  0  0  0  0  0  0  0  0
    7.8047    1.7523   -2.8486 C   0  0  0  0  0  0  0  0  0  0  0  0
   -4.3036    1.2738   -0.7102 H   0  0  0  0  0  0  0  0  0  0  0  0
   -5.1781   -1.5044    0.1846 H   0  0  0  0  0  0  0  0  0  0  0  0
   -3.5412   -1.2131    1.7552 H   0  0  0  0  0  0  0  0  0  0  0  0
   -2.9558    0.3167    1.0681 H   0  0  0  0  0  0  0  0  0  0  0  0
   -2.2025   -2.5267    0.1973 H   0  0  0  0  0  0  0  0  0  0  0  0
   -1.3128   -0.4720    2.1011 H   0  0  0  0  0  0  0  0  0  0  0  0
   -0.9879   -2.2508    2.0122 H   0  0  0  0  0  0  0  0  0  0  0  0
    3.3855   -0.7603    2.6257 H   0  0  0  0  0  0  0  0  0  0  0  0
   -9.2467    0.0359   -2.4669 H   0  0  0  0  0  0  0  0  0  0  0  0
   -8.5562    1.3994   -3.3750 H   0  0  0  0  0  0  0  0  0  0  0  0
   -4.9339   -2.9379   -1.4527 H   0  0  0  0  0  0  0  0  0  0  0  0
   -2.0773    0.7425   -3.1778 H   0  0  0  0  0  0  0  0  0  0  0  0
    2.0494    0.4728   -2.5123 H   0  0  0  0  0  0  0  0  0  0  0  0
   -7.6138    2.1010   -1.2640 H   0  0  0  0  0  0  0  0  0  0  0  0
    4.5324    0.4905   -0.7544 H   0  0  0  0  0  0  0  0  0  0  0  0
    0.4597   -0.9613    5.2647 H   0  0  0  0  0  0  0  0  0  0  0  0
   -0.0629    0.2072    4.0279 H   0  0  0  0  0  0  0  0  0  0  0  0
   -0.9142   -1.4251    4.2606 H   0  0  0  0  0  0  0  0  0  0  0  0
    1.7090   -3.4581    2.9686 H   0  0  0  0  0  0  0  0  0  0  0  0
    1.2139   -3.1528    4.6770 H   0  0  0  0  0  0  0  0  0  0  0  0
    2.7421   -2.4509    4.0167 H   0  0  0  0  0  0  0  0  0  0  0  0
   -5.4481    3.0862    1.7334 H   0  0  0  0  0  0  0  0  0  0  0  0
   -5.6620    2.8491   -0.0258 H   0  0  0  0  0  0  0  0  0  0  0  0
   -7.0413    2.4752    1.0497 H   0  0  0  0  0  0  0  0  0  0  0  0
   -5.7560   -0.4950    2.3228 H   0  0  0  0  0  0  0  0  0  0  0  0
   -7.0265    0.7444    2.3930 H   0  0  0  0  0  0  0  0  0  0  0  0
   -6.9280   -0.3471    0.9218 H   0  0  0  0  0  0  0  0  0  0  0  0
    7.4486   -0.3353    0.5786 H   0  0  0  0  0  0  0  0  0  0  0  0
    7.2736    1.3269    1.1853 H   0  0  0  0  0  0  0  0  0  0  0  0
    6.3913    0.1487   -1.4244 H   0  0  0  0  0  0  0  0  0  0  0  0
    9.8324    0.4120   -1.9970 H   0  0  0  0  0  0  0  0  0  0  0  0
    8.4100   -0.6492   -1.4753 H   0  0  0  0  0  0  0  0  0  0  0  0
    9.3426    0.2099   -0.2252 H   0  0  0  0  0  0  0  0  0  0  0  0
    9.5761    2.8046   -1.0790 H   0  0  0  0  0  0  0  0  0  0  0  0
    8.6012    2.6362    0.3820 H   0  0  0  0  0  0  0  0  0  0  0  0
    7.9836    3.5718   -1.0875 H   0  0  0  0  0  0  0  0  0  0  0  0
    7.3376    0.9037   -3.3840 H   0  0  0  0  0  0  0  0  0  0  0  0
    8.8183    2.0065   -3.2526 H   0  0  0  0  0  0  0  0  0  0  0  0
    7.1571    2.6591   -2.8839 H   0  0  0  0  0  0  0  0  0  0  0  0
  1  2  1  0
  1 18  1  0
  1 23  2  0
  2  3  2  0
  2 19  1  0
  3  4  1  0
  3 27  1  0
  4  5  1  0
  4 32  1  0
  5  6  1  0
  5 18  1  0
  6  7  1  0
  7  8  1  0
  7 16  1  0
  8  9  1  0
  9 10  2  0
  9 14  1  0
 10 11  1  0
 10 29  1  0
 11 12  2  0
 12 13  1  0
 12 28  1  0
 13 14  2  0
 13 26  1  0
 14 15  1  0
 15 16  1  0
 15 22  2  0
 16 17  2  0
 17 18  1  0
 17 25  1  0
 18 24  1  1
 19 20  2  0
 19 21  1  0
 29 30  1  0
 29 31  1  0
 32 33  1  0
 32 34  1  0
 28 35  1  0
 35 36  1  0
 35 37  2  0
 36 38  1  0
 38 39  1  0
 39 40  1  0
 39 41  1  0
 39 42  1  0
  4 43  1  6
  5 44  1  1
  6 45  1  0
  6 46  1  0
  7 47  1  6
  8 48  1  0
  8 49  1  0
 11 50  1  0
 21 51  1  0
 21 52  1  0
 24 53  1  0
 25 54  1  0
 26 55  1  0
 27 56  1  0
 28 57  1  0
 30 58  1  0
 30 59  1  0
 30 60  1  0
 31 61  1  0
 31 62  1  0
 31 63  1  0
 33 64  1  0
 33 65  1  0
 33 66  1  0
 34 67  1  0
 34 68  1  0
 34 69  1  0
 36 70  1  0
 36 71  1  0
 38 72  1  0
 40 73  1  0
 40 74  1  0
 40 75  1  0
 41 76  1  0
 41 77  1  0
 41 78  1  0
 42 79  1  0
 42 80  1  0
 42 81  1  0
M  END

