46508546
     RDKit          3D

 10  9  0  0  0  0  0  0  0  0999 V2000
   -2.3405   -0.2243    0.0765 O   0  0  0  0  0  0  0  0  0  0  0  0
   -0.1653    0.8777   -1.3689 O   0  0  0  0  0  0  0  0  0  0  0  0
   -1.0502   -0.3500    0.4360 N   0  0  0  0  0  0  0  0  0  0  0  0
    0.0294    0.2071   -0.2972 C   0  0  0  0  0  0  0  0  0  0  0  0
    1.4394    0.0645    0.1038 C   0  0  0  0  0  0  0  0  0  0  0  0
   -2.4486    0.3150   -0.7518 H   0  0  0  0  0  0  0  0  0  0  0  0
   -0.8476   -0.8871    1.3003 H   0  0  0  0  0  0  0  0  0  0  0  0
    1.5134   -0.2924    1.1360 H   0  0  0  0  0  0  0  0  0  0  0  0
    1.9708    1.0061   -0.0935 H   0  0  0  0  0  0  0  0  0  0  0  0
    1.8992   -0.7166   -0.5414 H   0  0  0  0  0  0  0  0  0  0  0  0
  1  3  1  0
  2  4  2  0
  3  4  1  0
  4  5  1  0
  1  6  1  0
  3  7  1  0
  5  8  1  0
  5  9  1  0
  5 10  1  0
M  END

