46506961
     RDKit          3D

 25 25  0  0  1  0  0  0  0  0999 V2000
    1.0821   -0.1175    2.0676 O   0  0  0  0  0  0  0  0  0  0  0  0
   -3.3041    1.7710   -1.3931 O   0  0  0  0  0  0  0  0  0  0  0  0
    3.0429   -0.5330    0.2471 N   0  0  0  0  0  0  0  0  0  0  0  0
    0.8092    0.1251    0.7229 C   0  0  1  0  0  0  0  0  0  0  0  0
    1.6554   -0.8226   -0.0832 C   0  0  0  0  0  0  0  0  0  0  0  0
   -0.6380   -0.0084    0.4373 C   0  0  0  0  0  0  0  0  0  0  0  0
   -1.3296    0.9138   -0.3340 C   0  0  0  0  0  0  0  0  0  0  0  0
   -1.3757   -1.0694    0.9307 C   0  0  0  0  0  0  0  0  0  0  0  0
   -2.6688    0.8103   -0.6115 C   0  0  0  0  0  0  0  0  0  0  0  0
   -2.7258   -1.1919    0.6629 C   0  0  0  0  0  0  0  0  0  0  0  0
   -3.3949   -0.2631   -0.1070 C   0  0  0  0  0  0  0  0  0  0  0  0
    3.4636    0.7678   -0.2419 C   0  0  0  0  0  0  0  0  0  0  0  0
    0.8619   -1.0510    2.2523 H   0  0  0  0  0  0  0  0  0  0  0  0
   -4.2662    1.7462   -1.6246 H   0  0  0  0  0  0  0  0  0  0  0  0
    3.1867   -0.5211    1.2876 H   0  0  0  0  0  0  0  0  0  0  0  0
    1.1245    1.1557    0.4603 H   0  0  0  0  0  0  0  0  0  0  0  0
    1.5442   -0.6583   -1.1807 H   0  0  0  0  0  0  0  0  0  0  0  0
    1.4892   -1.8833    0.1592 H   0  0  0  0  0  0  0  0  0  0  0  0
   -0.7654    1.7344   -0.7175 H   0  0  0  0  0  0  0  0  0  0  0  0
   -0.8874   -1.8274    1.5437 H   0  0  0  0  0  0  0  0  0  0  0  0
   -3.3005   -2.0197    1.0482 H   0  0  0  0  0  0  0  0  0  0  0  0
   -4.4555   -0.3522   -0.3219 H   0  0  0  0  0  0  0  0  0  0  0  0
    3.6351    1.4937    0.6038 H   0  0  0  0  0  0  0  0  0  0  0  0
    2.7784    1.1944   -0.9860 H   0  0  0  0  0  0  0  0  0  0  0  0
    4.4386    0.6064   -0.7634 H   0  0  0  0  0  0  0  0  0  0  0  0
  4  1  1  0
  2  9  1  0
  3  5  1  0
  3 12  1  0
  4  5  1  0
  4  6  1  0
  6  7  2  0
  6  8  1  0
  7  9  1  0
  8 10  2  0
  9 11  2  0
 10 11  1  0
  1 13  1  0
  2 14  1  0
  3 15  1  0
  4 16  1  6
  5 17  1  0
  5 18  1  0
  7 19  1  0
  8 20  1  0
 10 21  1  0
 11 22  1  0
 12 23  1  0
 12 24  1  0
 12 25  1  0
M  END

