46507952
     RDKit          3D

 60 64  0  0  1  0  0  0  0  0999 V2000
    2.2073    1.6045    2.5102 F   0  0  0  0  0  0  0  0  0  0  0  0
    1.8272    1.2905    1.2106 C   0  0  1  0  0  0  0  0  0  0  0  0
    3.1200    1.3822    0.3809 C   0  0  0  0  0  0  0  0  0  0  0  0
    3.7560    0.0701    0.8669 C   0  0  2  0  0  0  0  0  0  0  0  0
    4.9433   -0.2429    0.1594 N   0  0  0  0  0  0  0  0  0  0  0  0
    6.0078    0.5693    0.2594 C   0  0  0  0  0  0  0  0  0  0  0  0
    7.1674    0.2993   -0.4066 N   0  0  0  0  0  0  0  0  0  0  0  0
    7.2993   -0.7866   -1.1905 C   0  0  0  0  0  0  0  0  0  0  0  0
    6.2225   -1.6296   -1.3059 C   0  0  0  0  0  0  0  0  0  0  0  0
    5.0573   -1.3305   -0.6181 C   0  0  0  0  0  0  0  0  0  0  0  0
    8.3938   -1.0238   -1.8072 O   0  0  0  0  0  0  0  0  0  0  0  0
    5.9985    1.6142    0.9644 O   0  0  0  0  0  0  0  0  0  0  0  0
    2.7087   -0.8098    0.6956 O   0  0  0  0  0  0  0  0  0  0  0  0
    1.5719   -0.1729    1.1439 C   0  0  2  0  0  0  0  0  0  0  0  0
    0.3488   -0.4334    0.2837 C   0  0  0  0  0  0  0  0  0  0  0  0
   -0.7270    0.2541    0.7959 O   0  0  0  0  0  0  0  0  0  0  0  0
   -1.9032    0.0707    0.1163 C   0  0  0  0  0  0  0  0  0  0  0  0
   -1.8708    0.4899   -1.3052 C   0  0  0  0  0  0  0  0  0  0  0  0
   -2.7086   -0.0867   -2.2539 C   0  0  0  0  0  0  0  0  0  0  0  0
   -2.7085    0.2992   -3.5868 C   0  0  0  0  0  0  0  0  0  0  0  0
   -1.8436    1.2889   -3.9719 C   0  0  0  0  0  0  0  0  0  0  0  0
   -1.0117    1.8640   -3.0392 C   0  0  0  0  0  0  0  0  0  0  0  0
   -1.0230    1.4718   -1.7226 C   0  0  0  0  0  0  0  0  0  0  0  0
   -2.3542   -1.3409    0.2549 C   0  0  0  0  0  0  0  0  0  0  0  0
   -1.9130   -2.2754   -0.6396 C   0  0  0  0  0  0  0  0  0  0  0  0
   -2.3075   -3.5847   -0.5245 C   0  0  0  0  0  0  0  0  0  0  0  0
   -3.1518   -3.9454    0.5012 C   0  0  0  0  0  0  0  0  0  0  0  0
   -3.5891   -3.0135    1.3894 C   0  0  0  0  0  0  0  0  0  0  0  0
   -3.1966   -1.7054    1.2768 C   0  0  0  0  0  0  0  0  0  0  0  0
   -2.9694    0.9209    0.7629 C   0  0  0  0  0  0  0  0  0  0  0  0
   -4.3000    0.7568    0.4792 C   0  0  0  0  0  0  0  0  0  0  0  0
   -5.2526    1.5583    1.0871 C   0  0  0  0  0  0  0  0  0  0  0  0
   -4.8310    2.5289    1.9880 C   0  0  0  0  0  0  0  0  0  0  0  0
   -3.4970    2.7043    2.2823 C   0  0  0  0  0  0  0  0  0  0  0  0
   -2.5713    1.9033    1.6720 C   0  0  0  0  0  0  0  0  0  0  0  0
    1.0365    1.9391    0.8395 H   0  0  0  0  0  0  0  0  0  0  0  0
    3.7223    2.2470    0.6589 H   0  0  0  0  0  0  0  0  0  0  0  0
    2.8824    1.3072   -0.7005 H   0  0  0  0  0  0  0  0  0  0  0  0
    3.9096    0.2205    1.9584 H   0  0  0  0  0  0  0  0  0  0  0  0
    7.9832    0.9380   -0.3191 H   0  0  0  0  0  0  0  0  0  0  0  0
    6.3120   -2.5138   -1.9366 H   0  0  0  0  0  0  0  0  0  0  0  0
    4.2364   -2.0174   -0.7358 H   0  0  0  0  0  0  0  0  0  0  0  0
    1.3298   -0.5742    2.1584 H   0  0  0  0  0  0  0  0  0  0  0  0
    0.5799   -0.1833   -0.7507 H   0  0  0  0  0  0  0  0  0  0  0  0
    0.1978   -1.5533    0.3448 H   0  0  0  0  0  0  0  0  0  0  0  0
   -3.3934   -0.8646   -1.9962 H   0  0  0  0  0  0  0  0  0  0  0  0
   -3.3660   -0.1600   -4.3069 H   0  0  0  0  0  0  0  0  0  0  0  0
   -1.8474    1.5889   -5.0238 H   0  0  0  0  0  0  0  0  0  0  0  0
   -0.3454    2.6488   -3.4144 H   0  0  0  0  0  0  0  0  0  0  0  0
   -0.3316    1.9947   -1.0754 H   0  0  0  0  0  0  0  0  0  0  0  0
   -1.2498   -2.0517   -1.4714 H   0  0  0  0  0  0  0  0  0  0  0  0
   -1.9707   -4.3197   -1.2143 H   0  0  0  0  0  0  0  0  0  0  0  0
   -3.4527   -4.9947    0.5727 H   0  0  0  0  0  0  0  0  0  0  0  0
   -4.2515   -3.3119    2.1895 H   0  0  0  0  0  0  0  0  0  0  0  0
   -3.5775   -0.9969    2.0226 H   0  0  0  0  0  0  0  0  0  0  0  0
   -4.6575    0.0117   -0.2113 H   0  0  0  0  0  0  0  0  0  0  0  0
   -6.3092    1.4660    0.8948 H   0  0  0  0  0  0  0  0  0  0  0  0
   -5.5998    3.1347    2.4424 H   0  0  0  0  0  0  0  0  0  0  0  0
   -3.2046    3.4620    2.9822 H   0  0  0  0  0  0  0  0  0  0  0  0
   -1.5329    2.0236    1.8871 H   0  0  0  0  0  0  0  0  0  0  0  0
  2  1  1  0
  2  3  1  0
  2 14  1  0
  3  4  1  0
  4  5  1  0
  4 13  1  0
  5  6  1  0
  5 10  1  0
  6  7  1  0
  6 12  2  0
  7  8  1  0
  8  9  1  0
  8 11  2  0
  9 10  2  0
 13 14  1  0
 14 15  1  0
 15 16  1  0
 16 17  1  0
 17 18  1  0
 17 24  1  0
 17 30  1  0
 18 19  2  0
 18 23  1  0
 19 20  1  0
 20 21  2  0
 21 22  1  0
 22 23  2  0
 24 25  2  0
 24 29  1  0
 25 26  1  0
 26 27  2  0
 27 28  1  0
 28 29  2  0
 30 31  2  0
 30 35  1  0
 31 32  1  0
 32 33  2  0
 33 34  1  0
 34 35  2  0
  2 36  1  6
  3 37  1  0
  3 38  1  0
  4 39  1  1
  7 40  1  0
  9 41  1  0
 10 42  1  0
 14 43  1  1
 15 44  1  0
 15 45  1  0
 19 46  1  0
 20 47  1  0
 21 48  1  0
 22 49  1  0
 23 50  1  0
 25 51  1  0
 26 52  1  0
 27 53  1  0
 28 54  1  0
 29 55  1  0
 31 56  1  0
 32 57  1  0
 33 58  1  0
 34 59  1  0
 35 60  1  0
M  END

