46506319
     RDKit          3D

 29 29  0  0  1  0  0  0  0  0999 V2000
   -4.0714    1.6081    0.6920 C   0  0  0  0  0  0  0  0  0  0  0  0
   -3.6524    0.2113    0.9335 C   0  0  0  0  0  0  0  0  0  0  0  0
   -4.4921   -0.6422    1.0999 O   0  0  0  0  0  0  0  0  0  0  0  0
   -2.2333   -0.1345    0.9707 C   0  0  1  0  0  0  0  0  0  0  0  0
   -2.0145   -1.5489    1.2187 N   0  0  0  0  0  0  0  0  0  0  0  0
   -1.5050    0.2726   -0.3174 C   0  0  0  0  0  0  0  0  0  0  0  0
   -0.1637   -0.0025   -0.0876 O   0  0  0  0  0  0  0  0  0  0  0  0
    0.6508    0.3045   -1.1518 C   0  0  0  0  0  0  0  0  0  0  0  0
    2.0469   -0.0374   -0.7718 C   0  0  0  0  0  0  0  0  0  0  0  0
    2.3549   -0.5725    0.4783 C   0  0  0  0  0  0  0  0  0  0  0  0
    3.6217   -0.8955    0.8557 C   0  0  0  0  0  0  0  0  0  0  0  0
    4.6497   -0.6805   -0.0488 C   0  0  0  0  0  0  0  0  0  0  0  0
    4.3620   -0.1556   -1.2799 C   0  0  0  0  0  0  0  0  0  0  0  0
    3.0888    0.1669   -1.6537 C   0  0  0  0  0  0  0  0  0  0  0  0
   -3.2060    2.2772    0.5209 H   0  0  0  0  0  0  0  0  0  0  0  0
   -4.7294    1.9954    1.5154 H   0  0  0  0  0  0  0  0  0  0  0  0
   -4.6609    1.5994   -0.2713 H   0  0  0  0  0  0  0  0  0  0  0  0
   -1.7743    0.4010    1.8373 H   0  0  0  0  0  0  0  0  0  0  0  0
   -2.8934   -1.9643    1.6075 H   0  0  0  0  0  0  0  0  0  0  0  0
   -1.7076   -2.0510    0.3556 H   0  0  0  0  0  0  0  0  0  0  0  0
   -1.9224   -0.3085   -1.1535 H   0  0  0  0  0  0  0  0  0  0  0  0
   -1.7128    1.3287   -0.4956 H   0  0  0  0  0  0  0  0  0  0  0  0
    0.3772   -0.3818   -1.9974 H   0  0  0  0  0  0  0  0  0  0  0  0
    0.6025    1.3595   -1.4755 H   0  0  0  0  0  0  0  0  0  0  0  0
    1.5346   -0.7220    1.1442 H   0  0  0  0  0  0  0  0  0  0  0  0
    3.8154   -1.3121    1.8451 H   0  0  0  0  0  0  0  0  0  0  0  0
    5.6481   -0.9288    0.2329 H   0  0  0  0  0  0  0  0  0  0  0  0
    5.1537    0.0136   -1.9856 H   0  0  0  0  0  0  0  0  0  0  0  0
    2.8329    0.5821   -2.6179 H   0  0  0  0  0  0  0  0  0  0  0  0
  1  2  1  0
  2  3  2  0
  2  4  1  0
  4  5  1  0
  4  6  1  0
  6  7  1  0
  7  8  1  0
  8  9  1  0
  9 10  2  0
 10 11  1  0
 11 12  2  0
 12 13  1  0
 13 14  2  0
  9 14  1  0
  1 15  1  0
  1 16  1  0
  1 17  1  0
  4 18  1  1
  5 19  1  0
  5 20  1  0
  6 21  1  0
  6 22  1  0
  8 23  1  0
  8 24  1  0
 10 25  1  0
 11 26  1  0
 12 27  1  0
 13 28  1  0
 14 29  1  0
M  END

