46509011
     RDKit          3D

 78 81  0  0  1  0  0  0  0  0999 V2000
    2.1376   -0.3137   -0.4133 C   0  0  0  0  0  0  0  0  0  0  0  0
   -2.2027    0.0176    0.5175 C   0  0  0  0  0  0  0  0  0  0  0  0
    1.0842    0.0913   -1.3644 C   0  0  0  0  0  0  0  0  0  0  0  0
   -0.7610    0.4663    0.3732 C   0  0  1  0  0  0  0  0  0  0  0  0
   -0.2938   -0.1458   -0.8822 C   0  0  0  0  0  0  0  0  0  0  0  0
    3.4943   -0.1909   -0.7774 N   0  0  0  0  0  0  0  0  0  0  0  0
    8.0103   -1.5495    2.2093 C   0  0  0  0  0  0  0  0  0  0  0  0
   -2.5434   -1.3173    0.6149 O   0  0  0  0  0  0  0  0  0  0  0  0
   -3.8440   -1.7722    0.7465 C   0  0  0  0  0  0  0  0  0  0  0  0
    6.7365   -1.1663    1.5553 C   0  0  2  0  0  0  0  0  0  0  0  0
    1.8380   -0.7615    0.7049 O   0  0  0  0  0  0  0  0  0  0  0  0
   -3.1104    0.8731    0.5493 O   0  0  0  0  0  0  0  0  0  0  0  0
    8.0358   -2.7344    2.9459 O   0  0  0  0  0  0  0  0  0  0  0  0
    6.3150   -2.2362    0.5734 C   0  0  0  0  0  0  0  0  0  0  0  0
    6.8666    0.1424    0.8308 C   0  0  0  0  0  0  0  0  0  0  0  0
    4.5769   -0.5769    0.1323 C   0  0  1  0  0  0  0  0  0  0  0  0
    9.0557   -0.8630    2.1307 O   0  0  0  0  0  0  0  0  0  0  0  0
    5.4529   -1.6456   -0.5238 C   0  0  0  0  0  0  0  0  0  0  0  0
    5.4894    0.5964    0.4169 C   0  0  0  0  0  0  0  0  0  0  0  0
   -0.7738    1.9689    0.4286 C   0  0  0  0  0  0  0  0  0  0  0  0
    1.3413    1.3718   -2.0678 C   0  0  0  0  0  0  0  0  0  0  0  0
    1.2545   -0.9755   -2.5135 C   0  0  0  0  0  0  0  0  0  0  0  0
   -1.3440    2.3938    1.6573 O   0  0  0  0  0  0  0  0  0  0  0  0
   -2.0779    5.8517    1.0494 O   0  0  0  0  0  0  0  0  0  0  0  0
   -2.1666    4.4801    0.7375 C   0  0  0  0  0  0  0  0  0  0  0  0
   -1.3677    3.7603    1.7950 C   0  0  0  0  0  0  0  0  0  0  0  0
   -2.7929    6.5951    0.1162 C   0  0  0  0  0  0  0  0  0  0  0  0
    0.9674    1.1768   -3.5298 C   0  0  0  0  0  0  0  0  0  0  0  0
    0.6300   -0.2896   -3.6828 C   0  0  0  0  0  0  0  0  0  0  0  0
   -4.4507   -1.9344    1.9741 C   0  0  0  0  0  0  0  0  0  0  0  0
   -5.7360   -2.3844    2.1057 C   0  0  0  0  0  0  0  0  0  0  0  0
   -4.5961   -2.0865   -0.3588 C   0  0  0  0  0  0  0  0  0  0  0  0
   -6.4716   -2.6942    0.9760 C   0  0  0  0  0  0  0  0  0  0  0  0
   -5.8991   -2.5450   -0.2730 C   0  0  0  0  0  0  0  0  0  0  0  0
   -7.8567   -3.1952    0.8053 C   0  0  0  0  0  0  0  0  0  0  0  0
   -8.2009   -2.9156   -0.6313 C   0  0  0  0  0  0  0  0  0  0  0  0
   -6.8752   -2.9362   -1.3202 C   0  0  0  0  0  0  0  0  0  0  0  0
   -0.2082    0.1185    1.2815 H   0  0  0  0  0  0  0  0  0  0  0  0
   -0.4459   -1.2681   -0.8411 H   0  0  0  0  0  0  0  0  0  0  0  0
   -0.9840    0.2186   -1.7005 H   0  0  0  0  0  0  0  0  0  0  0  0
    3.8347    0.1741   -1.7039 H   0  0  0  0  0  0  0  0  0  0  0  0
    5.9483   -1.0310    2.3410 H   0  0  0  0  0  0  0  0  0  0  0  0
    8.4000   -3.5918    2.5090 H   0  0  0  0  0  0  0  0  0  0  0  0
    5.7510   -3.0222    1.1129 H   0  0  0  0  0  0  0  0  0  0  0  0
    7.2174   -2.6822    0.0947 H   0  0  0  0  0  0  0  0  0  0  0  0
    7.5587    0.0261   -0.0358 H   0  0  0  0  0  0  0  0  0  0  0  0
    7.3204    0.8902    1.4929 H   0  0  0  0  0  0  0  0  0  0  0  0
    4.1862   -0.9398    1.0832 H   0  0  0  0  0  0  0  0  0  0  0  0
    6.0762   -1.1919   -1.3150 H   0  0  0  0  0  0  0  0  0  0  0  0
    4.8280   -2.4744   -0.9208 H   0  0  0  0  0  0  0  0  0  0  0  0
    5.0968    1.2604    1.2017 H   0  0  0  0  0  0  0  0  0  0  0  0
    5.6155    1.2129   -0.5128 H   0  0  0  0  0  0  0  0  0  0  0  0
    0.2641    2.3895    0.4697 H   0  0  0  0  0  0  0  0  0  0  0  0
   -1.3898    2.3867   -0.3755 H   0  0  0  0  0  0  0  0  0  0  0  0
    2.4471    1.5865   -2.0660 H   0  0  0  0  0  0  0  0  0  0  0  0
    0.7979    2.2543   -1.7175 H   0  0  0  0  0  0  0  0  0  0  0  0
    2.3055   -1.2328   -2.6281 H   0  0  0  0  0  0  0  0  0  0  0  0
    0.7046   -1.8857   -2.2056 H   0  0  0  0  0  0  0  0  0  0  0  0
   -3.2210    4.1810    0.7187 H   0  0  0  0  0  0  0  0  0  0  0  0
   -1.6888    4.3470   -0.2661 H   0  0  0  0  0  0  0  0  0  0  0  0
   -1.7152    4.0530    2.8204 H   0  0  0  0  0  0  0  0  0  0  0  0
   -0.2935    4.0919    1.7545 H   0  0  0  0  0  0  0  0  0  0  0  0
   -2.3820    6.4272   -0.8818 H   0  0  0  0  0  0  0  0  0  0  0  0
   -3.8772    6.3196    0.1246 H   0  0  0  0  0  0  0  0  0  0  0  0
   -2.6728    7.6671    0.3740 H   0  0  0  0  0  0  0  0  0  0  0  0
    0.1008    1.8076   -3.8126 H   0  0  0  0  0  0  0  0  0  0  0  0
    1.7911    1.4376   -4.2072 H   0  0  0  0  0  0  0  0  0  0  0  0
    1.1004   -0.7100   -4.6068 H   0  0  0  0  0  0  0  0  0  0  0  0
   -0.4543   -0.4076   -3.6463 H   0  0  0  0  0  0  0  0  0  0  0  0
   -3.9147   -1.7047    2.8902 H   0  0  0  0  0  0  0  0  0  0  0  0
   -6.2129   -2.5123    3.0654 H   0  0  0  0  0  0  0  0  0  0  0  0
   -4.1685   -1.9773   -1.3436 H   0  0  0  0  0  0  0  0  0  0  0  0
   -7.9319   -4.2843    1.0544 H   0  0  0  0  0  0  0  0  0  0  0  0
   -8.5827   -2.6310    1.4345 H   0  0  0  0  0  0  0  0  0  0  0  0
   -8.8980   -3.6844   -1.0291 H   0  0  0  0  0  0  0  0  0  0  0  0
   -8.7070   -1.9137   -0.7171 H   0  0  0  0  0  0  0  0  0  0  0  0
   -6.8442   -2.2708   -2.2088 H   0  0  0  0  0  0  0  0  0  0  0  0
   -6.6742   -3.9893   -1.6588 H   0  0  0  0  0  0  0  0  0  0  0  0
  2  4  1  0
  1  3  1  0
  4  5  1  0
  3  5  1  0
  1  6  1  0
 10  7  1  0
  2  8  1  0
  8  9  1  0
 10 15  1  0
  1 11  2  0
  2 12  2  0
  7 13  1  0
 14 18  1  0
 15 19  1  0
 16  6  1  0
  7 17  2  0
 16 18  1  0
 16 19  1  0
  4 20  1  0
  3 21  1  0
  3 22  1  0
 20 23  1  0
 24 25  1  0
 25 26  1  0
 23 26  1  0
 24 27  1  0
 21 28  1  0
 22 29  1  0
 28 29  1  0
 10 14  1  0
  9 30  2  0
 30 31  1  0
  9 32  1  0
 31 33  2  0
 32 34  2  0
 33 34  1  0
 33 35  1  0
 35 36  1  0
 34 37  1  0
 36 37  1  0
  4 38  1  1
  5 39  1  0
  5 40  1  0
  6 41  1  0
 10 42  1  1
 13 43  1  0
 14 44  1  0
 14 45  1  0
 15 46  1  0
 15 47  1  0
 16 48  1  1
 18 49  1  0
 18 50  1  0
 19 51  1  0
 19 52  1  0
 20 53  1  0
 20 54  1  0
 21 55  1  0
 21 56  1  0
 22 57  1  0
 22 58  1  0
 25 59  1  0
 25 60  1  0
 26 61  1  0
 26 62  1  0
 27 63  1  0
 27 64  1  0
 27 65  1  0
 28 66  1  0
 28 67  1  0
 29 68  1  0
 29 69  1  0
 30 70  1  0
 31 71  1  0
 32 72  1  0
 35 73  1  0
 35 74  1  0
 36 75  1  0
 36 76  1  0
 37 77  1  0
 37 78  1  0
M  END

