46507995
     RDKit          3D

 47 47  0  0  0  0  0  0  0  0999 V2000
   -7.4043    1.8373   -1.0892 C   0  0  0  0  0  0  0  0  0  0  0  0
   -6.6384    0.7132   -0.7269 N   0  0  0  0  0  0  0  0  0  0  0  0
   -7.2884   -0.6301   -0.7130 C   0  0  0  0  0  0  0  0  0  0  0  0
   -5.2665    0.6458   -0.3552 C   0  0  0  0  0  0  0  0  0  0  0  0
   -4.9867    0.6006    1.0579 C   0  0  0  0  0  0  0  0  0  0  0  0
   -3.6508    0.3591    1.3713 C   0  0  0  0  0  0  0  0  0  0  0  0
   -2.6293    0.1666    0.5263 C   0  0  0  0  0  0  0  0  0  0  0  0
   -2.9669    0.2358   -0.9131 C   0  0  0  0  0  0  0  0  0  0  0  0
   -4.2642    0.4655   -1.2164 C   0  0  0  0  0  0  0  0  0  0  0  0
   -1.2664   -0.1180    0.6837 C   0  0  0  0  0  0  0  0  0  0  0  0
   -0.5067    0.9811    0.1054 O   0  0  0  0  0  0  0  0  0  0  0  0
   -0.4214   -1.0656    1.1481 N   0  0  0  0  0  0  0  0  0  0  0  0
    1.0062   -0.7597    0.8240 C   0  0  0  0  0  0  0  0  0  0  0  0
    1.9655   -1.8597    1.0631 C   0  0  0  0  0  0  0  0  0  0  0  0
    3.2137   -1.3450    0.2436 C   0  0  0  0  0  0  0  0  0  0  0  0
    3.6966   -0.0570    0.7725 C   0  0  0  0  0  0  0  0  0  0  0  0
    4.5157    0.6385   -0.2294 C   0  0  0  0  0  0  0  0  0  0  0  0
    5.7204    0.1402   -0.8329 C   0  0  0  0  0  0  0  0  0  0  0  0
    6.8641   -0.0742    0.1234 C   0  0  0  0  0  0  0  0  0  0  0  0
    6.6211   -0.4902    1.2588 O   0  0  0  0  0  0  0  0  0  0  0  0
    8.0925    0.2279   -0.3865 N   0  0  0  0  0  0  0  0  0  0  0  0
    9.2676    0.5094   -0.8516 O   0  0  0  0  0  0  0  0  0  0  0  0
   -6.8732    2.6090   -1.7032 H   0  0  0  0  0  0  0  0  0  0  0  0
   -7.7964    2.3741   -0.1841 H   0  0  0  0  0  0  0  0  0  0  0  0
   -8.3182    1.5236   -1.6474 H   0  0  0  0  0  0  0  0  0  0  0  0
   -8.3037   -0.5811   -1.1344 H   0  0  0  0  0  0  0  0  0  0  0  0
   -6.6325   -1.3302   -1.2800 H   0  0  0  0  0  0  0  0  0  0  0  0
   -7.2846   -0.9764    0.3452 H   0  0  0  0  0  0  0  0  0  0  0  0
   -5.7833    0.7597    1.7356 H   0  0  0  0  0  0  0  0  0  0  0  0
   -3.4189    0.3234    2.4434 H   0  0  0  0  0  0  0  0  0  0  0  0
   -2.1737    0.0832   -1.5875 H   0  0  0  0  0  0  0  0  0  0  0  0
   -4.5642    0.5097   -2.2980 H   0  0  0  0  0  0  0  0  0  0  0  0
   -0.7438   -1.9016    1.6767 H   0  0  0  0  0  0  0  0  0  0  0  0
    1.2060    0.0992    1.5198 H   0  0  0  0  0  0  0  0  0  0  0  0
    1.0565   -0.4079   -0.2282 H   0  0  0  0  0  0  0  0  0  0  0  0
    2.2844   -1.9703    2.1011 H   0  0  0  0  0  0  0  0  0  0  0  0
    1.6449   -2.8147    0.5952 H   0  0  0  0  0  0  0  0  0  0  0  0
    2.8666   -1.2075   -0.7975 H   0  0  0  0  0  0  0  0  0  0  0  0
    3.9154   -2.1981    0.3050 H   0  0  0  0  0  0  0  0  0  0  0  0
    2.8910    0.6659    1.0834 H   0  0  0  0  0  0  0  0  0  0  0  0
    4.3249   -0.2786    1.6947 H   0  0  0  0  0  0  0  0  0  0  0  0
    4.6775    1.7014    0.1940 H   0  0  0  0  0  0  0  0  0  0  0  0
    3.7490    0.9224   -1.0830 H   0  0  0  0  0  0  0  0  0  0  0  0
    6.0228    0.8496   -1.6475 H   0  0  0  0  0  0  0  0  0  0  0  0
    5.5620   -0.8662   -1.3765 H   0  0  0  0  0  0  0  0  0  0  0  0
    8.7052   -0.1412    0.7831 H   0  0  0  0  0  0  0  0  0  0  0  0
    9.3129    1.3645   -1.3737 H   0  0  0  0  0  0  0  0  0  0  0  0
  1  2  1  0
  2  3  1  0
  2  4  1  0
  4  5  2  0
  5  6  1  0
  6  7  2  0
  7  8  1  0
  8  9  2  0
  4  9  1  0
  7 10  1  0
 10 11  2  0
 10 12  1  0
 12 13  1  0
 13 14  1  0
 14 15  1  0
 15 16  1  0
 16 17  1  0
 17 18  1  0
 18 19  1  0
 19 20  2  0
 19 21  1  0
 21 22  1  0
  1 23  1  0
  1 24  1  0
  1 25  1  0
  3 26  1  0
  3 27  1  0
  3 28  1  0
  5 29  1  0
  6 30  1  0
  8 31  1  0
  9 32  1  0
 12 33  1  0
 13 34  1  0
 13 35  1  0
 14 36  1  0
 14 37  1  0
 15 38  1  0
 15 39  1  0
 16 40  1  0
 16 41  1  0
 17 42  1  0
 17 43  1  0
 18 44  1  0
 18 45  1  0
 21 46  1  0
 22 47  1  0
M  END

