46508560
     RDKit          3D

 23 23  0  0  0  0  0  0  0  0999 V2000
   -0.4989   -1.8745    0.2033 C   0  0  0  0  0  0  0  0  0  0  0  0
   -1.1228   -0.6366    0.0091 C   0  0  0  0  0  0  0  0  0  0  0  0
    0.8468   -1.9438    0.2347 N   0  0  0  0  0  0  0  0  0  0  0  0
   -0.2888    0.4360   -0.1513 C   0  0  0  0  0  0  0  0  0  0  0  0
    1.1064    0.3891   -0.1455 C   0  0  0  0  0  0  0  0  0  0  0  0
    1.6499   -0.8879    0.0876 C   0  0  0  0  0  0  0  0  0  0  0  0
   -2.5334   -0.5310   -0.3200 C   0  0  0  0  0  0  0  0  0  0  0  0
   -3.3362   -1.5783    0.1170 O   0  0  0  0  0  0  0  0  0  0  0  0
    3.1461   -0.9254    0.1928 C   0  0  0  0  0  0  0  0  0  0  0  0
    1.8130    1.4359   -0.3969 O   0  0  0  0  0  0  0  0  0  0  0  0
   -0.8852    1.7526   -0.0751 C   0  0  0  0  0  0  0  0  0  0  0  0
   -0.3837    2.4159    1.0822 O   0  0  0  0  0  0  0  0  0  0  0  0
   -1.0204   -2.7548    0.3617 H   0  0  0  0  0  0  0  0  0  0  0  0
   -2.9937    0.4344   -0.4921 H   0  0  0  0  0  0  0  0  0  0  0  0
   -2.4488   -0.8504   -1.5385 H   0  0  0  0  0  0  0  0  0  0  0  0
   -2.8223   -2.1880    0.6765 H   0  0  0  0  0  0  0  0  0  0  0  0
    3.4413   -0.0877    0.8893 H   0  0  0  0  0  0  0  0  0  0  0  0
    3.5461   -0.6533   -0.7886 H   0  0  0  0  0  0  0  0  0  0  0  0
    3.5440   -1.8646    0.6468 H   0  0  0  0  0  0  0  0  0  0  0  0
    2.1079    2.3021   -0.6224 H   0  0  0  0  0  0  0  0  0  0  0  0
   -1.8695    1.9346   -0.2946 H   0  0  0  0  0  0  0  0  0  0  0  0
   -0.2823    2.3576   -0.8955 H   0  0  0  0  0  0  0  0  0  0  0  0
   -0.7153    3.3183    1.2195 H   0  0  0  0  0  0  0  0  0  0  0  0
  1  2  2  0
  2  7  1  0
  1  3  1  0
  2  4  1  0
  4 11  1  0
  4  5  2  0
  5 10  1  0
  3  6  2  0
  5  6  1  0
  6  9  1  0
  7  8  1  0
 11 12  1  0
  1 13  1  0
  7 14  1  0
  7 15  1  0
  8 16  1  0
  9 17  1  0
  9 18  1  0
  9 19  1  0
 10 20  1  0
 11 21  1  0
 11 22  1  0
 12 23  1  0
M  END

