46506927
     RDKit          3D

  9  8  0  0  0  0  0  0  0  0999 V2000
    1.5801    0.3134    1.3233 O   0  0  0  0  0  0  0  0  0  0  0  0
   -0.1566    1.7020   -0.2095 O   0  0  0  0  0  0  0  0  0  0  0  0
    0.5984   -0.2921    0.6231 N   0  0  0  0  0  0  0  0  0  0  0  0
   -1.2988   -0.1810   -0.8833 N   0  0  0  0  0  0  0  0  0  0  0  0
   -0.2822    0.4693   -0.1610 C   0  0  0  0  0  0  0  0  0  0  0  0
    2.4521    0.2092    0.8525 H   0  0  0  0  0  0  0  0  0  0  0  0
    0.5129   -1.3523    0.6825 H   0  0  0  0  0  0  0  0  0  0  0  0
   -1.3097   -0.2828   -1.9205 H   0  0  0  0  0  0  0  0  0  0  0  0
   -2.0962   -0.5859   -0.3071 H   0  0  0  0  0  0  0  0  0  0  0  0
  1  3  1  0
  2  5  2  0
  3  5  1  0
  4  5  1  0
  1  6  1  0
  3  7  1  0
  4  8  1  0
  4  9  1  0
M  END

