46508342
     RDKit          3D

 79 84  0  0  1  0  0  0  0  0999 V2000
   -1.7352   -2.3170    2.1439 C   0  0  0  0  0  0  0  0  0  0  0  0
   -2.1218   -2.8321    0.9613 N   0  0  0  0  0  0  0  0  0  0  0  0
   -2.6060   -2.8338    3.1168 C   0  0  0  0  0  0  0  0  0  0  0  0
   -0.7366   -1.4537    2.5109 C   0  0  0  0  0  0  0  0  0  0  0  0
   -3.2000   -3.6498    1.1944 C   0  0  0  0  0  0  0  0  0  0  0  0
   -1.5589   -2.5993   -0.3311 C   0  0  0  0  0  0  0  0  0  0  0  0
   -3.4818   -3.6422    2.4891 N   0  0  0  0  0  0  0  0  0  0  0  0
   -2.4697   -2.4792    4.4353 C   0  0  0  0  0  0  0  0  0  0  0  0
   -0.6255   -1.1107    3.8678 C   0  0  0  0  0  0  0  0  0  0  0  0
    0.2417   -0.9350    1.5832 C   0  0  0  0  0  0  0  0  0  0  0  0
   -3.8615   -4.3517    0.2433 O   0  0  0  0  0  0  0  0  0  0  0  0
   -2.0915   -1.4269   -1.0548 C   0  0  0  0  0  0  0  0  0  0  0  0
   -1.4796   -1.6155    4.8201 C   0  0  0  0  0  0  0  0  0  0  0  0
    1.3308   -1.5934    1.0868 O   0  0  0  0  0  0  0  0  0  0  0  0
    0.0732    0.2673    1.1917 O   0  0  0  0  0  0  0  0  0  0  0  0
   -4.9528   -5.1928    0.4261 C   0  0  0  0  0  0  0  0  0  0  0  0
   -1.2911   -0.3803   -1.5277 C   0  0  0  0  0  0  0  0  0  0  0  0
   -3.4401   -1.3058   -1.2635 C   0  0  0  0  0  0  0  0  0  0  0  0
    2.2903   -1.1474    0.1885 C   0  0  0  0  0  0  0  0  0  0  0  0
   -5.3212   -5.7449   -0.9590 C   0  0  0  0  0  0  0  0  0  0  0  0
   -1.8427    0.7090   -2.1658 C   0  0  0  0  0  0  0  0  0  0  0  0
   -4.0176   -0.2021   -1.9119 C   0  0  0  0  0  0  0  0  0  0  0  0
    3.6130   -1.1973    0.7719 O   0  0  0  0  0  0  0  0  0  0  0  0
    2.3536   -2.0990   -0.9806 C   0  0  0  0  0  0  0  0  0  0  0  0
   -3.2099    0.8169   -2.3677 C   0  0  0  0  0  0  0  0  0  0  0  0
    4.3659   -0.0559    0.7674 C   0  0  0  0  0  0  0  0  0  0  0  0
   -3.7588    1.9863   -3.0220 C   0  0  0  0  0  0  0  0  0  0  0  0
    5.6529    0.0622    1.2871 O   0  0  0  0  0  0  0  0  0  0  0  0
    3.8835    0.9950    0.2576 O   0  0  0  0  0  0  0  0  0  0  0  0
   -3.9120    3.1489   -2.3286 C   0  0  0  0  0  0  0  0  0  0  0  0
   -4.1095    1.9247   -4.3429 C   0  0  0  0  0  0  0  0  0  0  0  0
    6.3611    1.2979    1.2387 C   0  0  0  0  0  0  0  0  0  0  0  0
   -3.5475    3.2038   -0.9143 C   0  0  0  0  0  0  0  0  0  0  0  0
   -4.4207    4.2706   -2.9526 C   0  0  0  0  0  0  0  0  0  0  0  0
   -4.6192    3.0399   -4.9758 C   0  0  0  0  0  0  0  0  0  0  0  0
    6.7669    1.7923    2.5952 C   0  0  0  0  0  0  0  0  0  0  0  0
    7.6001    1.1416    0.3938 C   0  0  0  0  0  0  0  0  0  0  0  0
   -3.6317    4.2879   -0.1062 N   0  0  0  0  0  0  0  0  0  0  0  0
   -3.0745    2.1890   -0.1799 N   0  0  0  0  0  0  0  0  0  0  0  0
   -4.7715    4.2073   -4.2751 C   0  0  0  0  0  0  0  0  0  0  0  0
    7.4256    3.1389    2.4013 C   0  0  0  0  0  0  0  0  0  0  0  0
    8.1020    2.5256    0.0499 C   0  0  0  0  0  0  0  0  0  0  0  0
   -3.2133    3.9014    1.0762 N   0  0  0  0  0  0  0  0  0  0  0  0
   -2.8760    2.6379    1.0378 N   0  0  0  0  0  0  0  0  0  0  0  0
    7.5001    3.5472    0.9527 C   0  0  0  0  0  0  0  0  0  0  0  0
   -1.8991   -3.4866   -0.9769 H   0  0  0  0  0  0  0  0  0  0  0  0
   -0.4619   -2.6866   -0.4060 H   0  0  0  0  0  0  0  0  0  0  0  0
   -3.1341   -2.8717    5.1834 H   0  0  0  0  0  0  0  0  0  0  0  0
    0.1767   -0.4249    4.1066 H   0  0  0  0  0  0  0  0  0  0  0  0
   -1.3923   -1.3514    5.8529 H   0  0  0  0  0  0  0  0  0  0  0  0
   -5.8304   -4.6537    0.8408 H   0  0  0  0  0  0  0  0  0  0  0  0
   -4.6599   -6.0255    1.0940 H   0  0  0  0  0  0  0  0  0  0  0  0
   -0.2337   -0.4695   -1.3770 H   0  0  0  0  0  0  0  0  0  0  0  0
   -4.1397   -2.0476   -0.9438 H   0  0  0  0  0  0  0  0  0  0  0  0
    2.1129   -0.1350   -0.1854 H   0  0  0  0  0  0  0  0  0  0  0  0
   -6.2106   -6.3747   -0.8301 H   0  0  0  0  0  0  0  0  0  0  0  0
   -5.6139   -4.9109   -1.6280 H   0  0  0  0  0  0  0  0  0  0  0  0
   -4.4598   -6.2828   -1.3953 H   0  0  0  0  0  0  0  0  0  0  0  0
   -1.2182    1.5071   -2.5235 H   0  0  0  0  0  0  0  0  0  0  0  0
   -5.0924   -0.1585   -2.0495 H   0  0  0  0  0  0  0  0  0  0  0  0
    2.4280   -3.1644   -0.6299 H   0  0  0  0  0  0  0  0  0  0  0  0
    1.5188   -2.0274   -1.6855 H   0  0  0  0  0  0  0  0  0  0  0  0
    3.2835   -1.9199   -1.5764 H   0  0  0  0  0  0  0  0  0  0  0  0
   -3.9925    1.0114   -4.8997 H   0  0  0  0  0  0  0  0  0  0  0  0
    5.6971    2.0484    0.7419 H   0  0  0  0  0  0  0  0  0  0  0  0
   -4.5202    5.1665   -2.3506 H   0  0  0  0  0  0  0  0  0  0  0  0
   -4.8928    2.9720   -6.0247 H   0  0  0  0  0  0  0  0  0  0  0  0
    7.4835    1.1177    3.0604 H   0  0  0  0  0  0  0  0  0  0  0  0
    5.8775    1.9217    3.2678 H   0  0  0  0  0  0  0  0  0  0  0  0
    7.4231    0.5304   -0.5274 H   0  0  0  0  0  0  0  0  0  0  0  0
    8.4010    0.6774    1.0237 H   0  0  0  0  0  0  0  0  0  0  0  0
   -3.9685    5.2378   -0.3914 H   0  0  0  0  0  0  0  0  0  0  0  0
   -5.1703    5.0698   -4.7829 H   0  0  0  0  0  0  0  0  0  0  0  0
    6.8508    3.9562    2.9178 H   0  0  0  0  0  0  0  0  0  0  0  0
    8.4555    3.1724    2.8073 H   0  0  0  0  0  0  0  0  0  0  0  0
    9.2076    2.5746   -0.0148 H   0  0  0  0  0  0  0  0  0  0  0  0
    7.7231    2.7428   -0.9893 H   0  0  0  0  0  0  0  0  0  0  0  0
    6.5064    3.9143    0.6007 H   0  0  0  0  0  0  0  0  0  0  0  0
    8.1621    4.4451    0.9255 H   0  0  0  0  0  0  0  0  0  0  0  0
  1  2  1  0
  1  3  2  0
  1  4  1  0
  2  5  1  0
  2  6  1  0
  3  7  1  0
  3  8  1  0
  4  9  2  0
  4 10  1  0
  5 11  1  0
  6 12  1  0
  8 13  2  0
 10 14  1  0
 10 15  2  0
 11 16  1  0
 12 17  2  0
 12 18  1  0
 14 19  1  0
 16 20  1  0
 17 21  1  0
 18 22  2  0
 19 23  1  0
 19 24  1  0
 21 25  2  0
 23 26  1  0
 25 27  1  0
 26 28  1  0
 26 29  2  0
 27 30  1  0
 27 31  2  0
 28 32  1  0
 30 33  1  0
 30 34  2  0
 31 35  1  0
 32 36  1  0
 32 37  1  0
 33 38  1  0
 33 39  2  0
 34 40  1  0
 36 41  1  0
 37 42  1  0
 38 43  1  0
 39 44  1  0
 41 45  1  0
  5  7  2  0
  9 13  1  0
 22 25  1  0
 35 40  2  0
 42 45  1  0
 43 44  2  0
  6 46  1  0
  6 47  1  0
  8 48  1  0
  9 49  1  0
 13 50  1  0
 16 51  1  0
 16 52  1  0
 17 53  1  0
 18 54  1  0
 19 55  1  0
 20 56  1  0
 20 57  1  0
 20 58  1  0
 21 59  1  0
 22 60  1  0
 24 61  1  0
 24 62  1  0
 24 63  1  0
 31 64  1  0
 32 65  1  0
 34 66  1  0
 35 67  1  0
 36 68  1  0
 36 69  1  0
 37 70  1  0
 37 71  1  0
 38 72  1  0
 40 73  1  0
 41 74  1  0
 41 75  1  0
 42 76  1  0
 42 77  1  0
 45 78  1  0
 45 79  1  0
M  END

