46507097
     RDKit          3D

 53 52  0  0  0  0  0  0  0  0999 V2000
    0.3633   -0.3692    0.1337 N   0  0  0  0  0  4  0  0  0  0  0  0
   -0.5039   -0.8778    1.1680 C   0  0  0  0  0  0  0  0  0  0  0  0
   -1.8317   -0.1970    1.2707 C   0  0  0  0  0  0  0  0  0  0  0  0
    1.7041   -0.3436    0.6856 C   0  0  0  0  0  0  0  0  0  0  0  0
    1.9185    0.7497    1.6857 C   0  0  0  0  0  0  0  0  0  0  0  0
   -0.0916    0.9149   -0.3112 C   0  0  0  0  0  0  0  0  0  0  0  0
    0.6674    1.4527   -1.4926 C   0  0  0  0  0  0  0  0  0  0  0  0
    0.4248   -1.3388   -0.9481 C   0  0  0  0  0  0  0  0  0  0  0  0
   -0.9129   -1.6639   -1.5271 C   0  0  0  0  0  0  0  0  0  0  0  0
   -2.5760   -0.8888    2.4219 C   0  0  0  0  0  0  0  0  0  0  0  0
   -3.9407   -0.2794    2.6197 C   0  0  0  0  0  0  0  0  0  0  0  0
    3.3621    0.6519    2.1762 C   0  0  0  0  0  0  0  0  0  0  0  0
    4.2799    0.8208    0.9835 C   0  0  0  0  0  0  0  0  0  0  0  0
    0.1499    2.8075   -1.9221 C   0  0  0  0  0  0  0  0  0  0  0  0
    0.2628    3.8376   -0.8265 C   0  0  0  0  0  0  0  0  0  0  0  0
   -0.6710   -2.6869   -2.6415 C   0  0  0  0  0  0  0  0  0  0  0  0
   -1.9740   -3.0846   -3.2969 C   0  0  0  0  0  0  0  0  0  0  0  0
   -0.0335   -0.8159    2.1909 H   0  0  0  0  0  0  0  0  0  0  0  0
   -0.6709   -1.9770    1.0200 H   0  0  0  0  0  0  0  0  0  0  0  0
   -1.7552    0.8711    1.5554 H   0  0  0  0  0  0  0  0  0  0  0  0
   -2.4852   -0.3155    0.3988 H   0  0  0  0  0  0  0  0  0  0  0  0
    2.4932   -0.3429   -0.0712 H   0  0  0  0  0  0  0  0  0  0  0  0
    1.8123   -1.3259    1.2360 H   0  0  0  0  0  0  0  0  0  0  0  0
    1.2034    0.7722    2.5002 H   0  0  0  0  0  0  0  0  0  0  0  0
    1.8561    1.7221    1.1550 H   0  0  0  0  0  0  0  0  0  0  0  0
   -0.0683    1.6668    0.4892 H   0  0  0  0  0  0  0  0  0  0  0  0
   -1.1484    0.8140   -0.6320 H   0  0  0  0  0  0  0  0  0  0  0  0
    1.7393    1.5747   -1.2346 H   0  0  0  0  0  0  0  0  0  0  0  0
    0.6040    0.7965   -2.3843 H   0  0  0  0  0  0  0  0  0  0  0  0
    1.1396   -1.0552   -1.7164 H   0  0  0  0  0  0  0  0  0  0  0  0
    0.8174   -2.2853   -0.4824 H   0  0  0  0  0  0  0  0  0  0  0  0
   -1.4370   -0.8186   -1.9753 H   0  0  0  0  0  0  0  0  0  0  0  0
   -1.5713   -2.1815   -0.7985 H   0  0  0  0  0  0  0  0  0  0  0  0
   -1.9611   -0.6938    3.3276 H   0  0  0  0  0  0  0  0  0  0  0  0
   -2.6467   -1.9695    2.2405 H   0  0  0  0  0  0  0  0  0  0  0  0
   -4.3019    0.1119    1.6351 H   0  0  0  0  0  0  0  0  0  0  0  0
   -3.8521    0.5530    3.3690 H   0  0  0  0  0  0  0  0  0  0  0  0
   -4.6224   -1.0352    3.0272 H   0  0  0  0  0  0  0  0  0  0  0  0
    3.5360   -0.3692    2.5776 H   0  0  0  0  0  0  0  0  0  0  0  0
    3.5674    1.3948    2.9705 H   0  0  0  0  0  0  0  0  0  0  0  0
    4.4490   -0.1794    0.5239 H   0  0  0  0  0  0  0  0  0  0  0  0
    3.8677    1.5469    0.2450 H   0  0  0  0  0  0  0  0  0  0  0  0
    5.2885    1.1540    1.3407 H   0  0  0  0  0  0  0  0  0  0  0  0
   -0.9190    2.7543   -2.2292 H   0  0  0  0  0  0  0  0  0  0  0  0
    0.7314    3.1741   -2.7853 H   0  0  0  0  0  0  0  0  0  0  0  0
   -0.6821    3.8753   -0.2160 H   0  0  0  0  0  0  0  0  0  0  0  0
    1.1512    3.7023   -0.2062 H   0  0  0  0  0  0  0  0  0  0  0  0
    0.3280    4.8347   -1.3130 H   0  0  0  0  0  0  0  0  0  0  0  0
   -0.0171   -2.2788   -3.4203 H   0  0  0  0  0  0  0  0  0  0  0  0
   -0.1778   -3.5988   -2.2452 H   0  0  0  0  0  0  0  0  0  0  0  0
   -1.7963   -3.3085   -4.3473 H   0  0  0  0  0  0  0  0  0  0  0  0
   -2.3454   -4.0183   -2.7828 H   0  0  0  0  0  0  0  0  0  0  0  0
   -2.7237   -2.2544   -3.1417 H   0  0  0  0  0  0  0  0  0  0  0  0
  1  2  1  0
  1  4  1  0
  1  6  1  0
  1  8  1  0
  2  3  1  0
  3 10  1  0
  4  5  1  0
  5 12  1  0
  6  7  1  0
  7 14  1  0
  8  9  1  0
  9 16  1  0
 10 11  1  0
 12 13  1  0
 14 15  1  0
 16 17  1  0
  2 18  1  0
  2 19  1  0
  3 20  1  0
  3 21  1  0
  4 22  1  0
  4 23  1  0
  5 24  1  0
  5 25  1  0
  6 26  1  0
  6 27  1  0
  7 28  1  0
  7 29  1  0
  8 30  1  0
  8 31  1  0
  9 32  1  0
  9 33  1  0
 10 34  1  0
 10 35  1  0
 11 36  1  0
 11 37  1  0
 11 38  1  0
 12 39  1  0
 12 40  1  0
 13 41  1  0
 13 42  1  0
 13 43  1  0
 14 44  1  0
 14 45  1  0
 15 46  1  0
 15 47  1  0
 15 48  1  0
 16 49  1  0
 16 50  1  0
 17 51  1  0
 17 52  1  0
 17 53  1  0
M  CHG  1   1   1
M  END

