46506419
     RDKit          3D

 50 49  0  0  0  0  0  0  0  0999 V2000
   -3.8199   -0.7308   -0.1919 C   0  0  0  0  0  0  0  0  0  0  0  0
   -2.7882   -0.3626   -1.1856 C   0  0  0  0  0  0  0  0  0  0  0  0
   -2.4178    1.0887   -1.2513 C   0  0  0  0  0  0  0  0  0  0  0  0
   -1.3768    1.3624   -2.3141 C   0  0  0  0  0  0  0  0  0  0  0  0
   -0.0842    0.6200   -2.1023 C   0  0  0  0  0  0  0  0  0  0  0  0
    0.4923    1.0384   -0.7954 C   0  0  0  0  0  0  0  0  0  0  0  0
    1.8291    0.3262   -0.4791 C   0  0  0  0  0  0  0  0  0  0  0  0
    2.8494    0.6074   -1.4915 C   0  0  0  0  0  0  0  0  0  0  0  0
    4.1287   -0.1065   -1.3729 C   0  0  0  0  0  0  0  0  0  0  0  0
    4.9186    0.0310   -0.1562 C   0  0  0  0  0  0  0  0  0  0  0  0
    4.3846   -0.5806    1.0839 C   0  0  0  0  0  0  0  0  0  0  0  0
    5.3612   -0.3317    2.2502 C   0  0  0  0  0  0  0  0  0  0  0  0
   -3.9327    0.9198    1.4755 C   0  0  0  0  0  0  0  0  0  0  0  0
   -4.4005   -1.2828    2.0563 C   0  0  0  0  0  0  0  0  0  0  0  0
   -2.2053   -0.6465    1.5866 C   0  0  0  0  0  0  0  0  0  0  0  0
   -3.5577   -0.4669    1.1790 N   0  0  0  0  0  4  0  0  0  0  0  0
   -3.9823   -1.8519   -0.2708 H   0  0  0  0  0  0  0  0  0  0  0  0
   -4.8272   -0.2897   -0.4182 H   0  0  0  0  0  0  0  0  0  0  0  0
   -1.8963   -1.0225   -1.0957 H   0  0  0  0  0  0  0  0  0  0  0  0
   -3.2045   -0.6026   -2.2180 H   0  0  0  0  0  0  0  0  0  0  0  0
   -2.1223    1.4304   -0.2627 H   0  0  0  0  0  0  0  0  0  0  0  0
   -3.3402    1.6537   -1.5442 H   0  0  0  0  0  0  0  0  0  0  0  0
   -1.1325    2.4442   -2.3182 H   0  0  0  0  0  0  0  0  0  0  0  0
   -1.8127    1.1381   -3.3086 H   0  0  0  0  0  0  0  0  0  0  0  0
   -0.2474   -0.4692   -2.1851 H   0  0  0  0  0  0  0  0  0  0  0  0
    0.5595    0.8898   -2.9803 H   0  0  0  0  0  0  0  0  0  0  0  0
   -0.1941    0.6956    0.0028 H   0  0  0  0  0  0  0  0  0  0  0  0
    0.6200    2.1182   -0.7290 H   0  0  0  0  0  0  0  0  0  0  0  0
    2.1288    0.9405    0.4474 H   0  0  0  0  0  0  0  0  0  0  0  0
    1.6683   -0.6820   -0.1692 H   0  0  0  0  0  0  0  0  0  0  0  0
    3.0708    1.7324   -1.5637 H   0  0  0  0  0  0  0  0  0  0  0  0
    2.4798    0.4116   -2.5503 H   0  0  0  0  0  0  0  0  0  0  0  0
    3.9568   -1.2497   -1.5149 H   0  0  0  0  0  0  0  0  0  0  0  0
    4.7959    0.1209   -2.2973 H   0  0  0  0  0  0  0  0  0  0  0  0
    5.0732    1.1389    0.1048 H   0  0  0  0  0  0  0  0  0  0  0  0
    5.9864   -0.3348   -0.3416 H   0  0  0  0  0  0  0  0  0  0  0  0
    4.4379   -1.7245    0.9696 H   0  0  0  0  0  0  0  0  0  0  0  0
    3.3930   -0.3659    1.4239 H   0  0  0  0  0  0  0  0  0  0  0  0
    6.3719   -0.2430    1.7957 H   0  0  0  0  0  0  0  0  0  0  0  0
    5.0813    0.6083    2.7701 H   0  0  0  0  0  0  0  0  0  0  0  0
    5.3103   -1.1587    2.9871 H   0  0  0  0  0  0  0  0  0  0  0  0
   -3.0820    1.4919    1.9171 H   0  0  0  0  0  0  0  0  0  0  0  0
   -4.3434    1.4474    0.6156 H   0  0  0  0  0  0  0  0  0  0  0  0
   -4.7239    0.9697    2.2771 H   0  0  0  0  0  0  0  0  0  0  0  0
   -5.4431   -1.2710    1.7143 H   0  0  0  0  0  0  0  0  0  0  0  0
   -4.0255   -2.3082    2.1640 H   0  0  0  0  0  0  0  0  0  0  0  0
   -4.3590   -0.8092    3.0544 H   0  0  0  0  0  0  0  0  0  0  0  0
   -1.7089    0.3270    1.8056 H   0  0  0  0  0  0  0  0  0  0  0  0
   -2.1939   -1.2175    2.5532 H   0  0  0  0  0  0  0  0  0  0  0  0
   -1.6756   -1.2796    0.8741 H   0  0  0  0  0  0  0  0  0  0  0  0
  1  2  1  0
  1 16  1  0
  2  3  1  0
  3  4  1  0
  4  5  1  0
  5  6  1  0
  6  7  1  0
  7  8  1  0
  8  9  1  0
  9 10  1  0
 10 11  1  0
 11 12  1  0
 13 16  1  0
 14 16  1  0
 15 16  1  0
  1 17  1  0
  1 18  1  0
  2 19  1  0
  2 20  1  0
  3 21  1  0
  3 22  1  0
  4 23  1  0
  4 24  1  0
  5 25  1  0
  5 26  1  0
  6 27  1  0
  6 28  1  0
  7 29  1  0
  7 30  1  0
  8 31  1  0
  8 32  1  0
  9 33  1  0
  9 34  1  0
 10 35  1  0
 10 36  1  0
 11 37  1  0
 11 38  1  0
 12 39  1  0
 12 40  1  0
 12 41  1  0
 13 42  1  0
 13 43  1  0
 13 44  1  0
 14 45  1  0
 14 46  1  0
 14 47  1  0
 15 48  1  0
 15 49  1  0
 15 50  1  0
M  CHG  1  16   1
M  END

