46504530
     RDKit          3D

 15 15  0  0  0  0  0  0  0  0999 V2000
    3.1652    0.3349    0.0726 O   0  0  0  0  0  1  0  0  0  0  0  0
    2.1827   -0.4728   -0.4658 C   0  0  0  0  0  0  0  0  0  0  0  0
    2.5620   -1.4714   -1.1201 O   0  0  0  0  0  0  0  0  0  0  0  0
    0.7390   -0.2065   -0.3008 C   0  0  0  0  0  0  0  0  0  0  0  0
   -0.2482   -0.8699   -0.7443 N   0  0  0  0  0  4  0  0  0  0  0  0
   -1.5266   -0.2567   -0.3479 C   0  0  0  0  0  0  0  0  0  0  0  0
   -1.0744    0.4166    0.9591 C   0  0  0  0  0  0  0  0  0  0  0  0
    0.2379    0.9603    0.4453 C   0  0  0  0  0  0  0  0  0  0  0  0
   -0.1584   -1.7377   -1.3159 H   0  0  0  0  0  0  0  0  0  0  0  0
   -2.2297   -1.0664   -0.0999 H   0  0  0  0  0  0  0  0  0  0  0  0
   -1.8754    0.4606   -1.0848 H   0  0  0  0  0  0  0  0  0  0  0  0
   -1.7778    1.1935    1.2762 H   0  0  0  0  0  0  0  0  0  0  0  0
   -0.8683   -0.3670    1.6842 H   0  0  0  0  0  0  0  0  0  0  0  0
    0.8978    1.2729    1.2719 H   0  0  0  0  0  0  0  0  0  0  0  0
   -0.0257    1.8097   -0.2297 H   0  0  0  0  0  0  0  0  0  0  0  0
  1  2  1  0
  2  3  2  0
  2  4  1  0
  4  5  2  0
  5  6  1  0
  6  7  1  0
  7  8  1  0
  4  8  1  0
  5  9  1  0
  6 10  1  0
  6 11  1  0
  7 12  1  0
  7 13  1  0
  8 14  1  0
  8 15  1  0
M  CHG  2   1  -1   5   1
M  END

