46505674
     RDKit          3D

 80 81  0  0  1  0  0  0  0  0999 V2000
    3.1393    1.5075   -0.2960 C   0  0  0  0  0  0  0  0  0  0  0  0
    1.7164    3.5613   -0.3723 C   0  0  0  0  0  0  0  0  0  0  0  0
    3.4358    1.7823    1.0199 C   0  0  0  0  0  0  0  0  0  0  0  0
    2.2650    2.3837   -1.0545 C   0  0  0  0  0  0  0  0  0  0  0  0
    0.8220    4.6054   -0.7949 N   0  0  0  0  0  0  0  0  0  0  0  0
    2.0476    3.7894    0.9303 C   0  0  0  0  0  0  0  0  0  0  0  0
    2.9106    2.9363    1.7077 C   0  0  0  0  0  0  0  0  0  0  0  0
   -0.4500    4.6289   -1.4047 C   0  0  0  0  0  0  0  0  0  0  0  0
   -2.5370   -2.0913   -0.2702 C   0  0  0  0  0  0  0  0  0  0  0  0
   -1.4800   -2.8855   -0.2862 C   0  0  0  0  0  0  0  0  0  0  0  0
   -2.5759   -0.7112    0.2650 C   0  0  2  0  0  0  0  0  0  0  0  0
   -3.7744   -0.1106    2.3450 C   0  0  0  0  0  0  0  0  0  0  0  0
   -1.7187    4.0794   -0.8777 C   0  0  0  0  0  0  0  0  0  0  0  0
   -0.5251   -3.1244    0.8296 C   0  0  1  0  0  0  0  0  0  0  0  0
   -3.7109   -0.3987    1.0078 O   0  0  0  0  0  0  0  0  0  0  0  0
    3.8620    0.2516   -0.6924 C   0  0  0  0  0  0  0  0  0  0  0  0
    0.7126   -2.2925    0.7189 C   0  0  2  0  0  0  0  0  0  0  0  0
    1.8763   -2.9691    0.0186 C   0  0  2  0  0  0  0  0  0  0  0  0
   -1.0016    2.0909    0.4191 C   0  0  0  0  0  0  0  0  0  0  0  0
    1.9652    2.1317   -2.3333 O   0  0  0  0  0  0  0  0  0  0  0  0
   -1.7898    3.2549    0.1571 C   0  0  0  0  0  0  0  0  0  0  0  0
   -0.5616    5.1745   -2.5333 O   0  0  0  0  0  0  0  0  0  0  0  0
    3.1944    3.1700    2.9027 O   0  0  0  0  0  0  0  0  0  0  0  0
   -2.2096    0.3191   -0.7829 C   0  0  2  0  0  0  0  0  0  0  0  0
    3.0271   -1.9848    0.1547 C   0  0  0  0  0  0  0  0  0  0  0  0
    4.2707    0.9419    1.7582 O   0  0  0  0  0  0  0  0  0  0  0  0
   -2.6692   -0.1443    2.9194 O   0  0  0  0  0  0  0  0  0  0  0  0
   -0.9439    1.0411   -0.3863 C   0  0  0  0  0  0  0  0  0  0  0  0
    2.9737   -0.9517   -0.9202 C   0  0  2  0  0  0  0  0  0  0  0  0
   -4.9879    0.1986    3.0171 N   0  0  0  0  0  0  0  0  0  0  0  0
    1.0843   -1.8899    1.9975 O   0  0  0  0  0  0  0  0  0  0  0  0
    1.5483   -3.0549   -1.3124 O   0  0  0  0  0  0  0  0  0  0  0  0
   -3.8107   -2.6516   -0.8631 C   0  0  0  0  0  0  0  0  0  0  0  0
   -3.2239    1.1436   -1.1478 O   0  0  0  0  0  0  0  0  0  0  0  0
   -3.0457    4.4479   -1.5026 C   0  0  0  0  0  0  0  0  0  0  0  0
   -1.1639   -2.9475    2.1880 C   0  0  0  0  0  0  0  0  0  0  0  0
    3.4212   -1.6428   -2.2198 C   0  0  0  0  0  0  0  0  0  0  0  0
    1.5840   -4.3356   -1.8304 C   0  0  0  0  0  0  0  0  0  0  0  0
   -3.6002    1.0158   -2.4841 C   0  0  0  0  0  0  0  0  0  0  0  0
    4.1034    0.5040    3.0562 C   0  0  0  0  0  0  0  0  0  0  0  0
    1.2269    5.6092   -0.5672 H   0  0  0  0  0  0  0  0  0  0  0  0
    1.6799    4.6777    1.4836 H   0  0  0  0  0  0  0  0  0  0  0  0
   -1.2303   -3.4635   -1.2094 H   0  0  0  0  0  0  0  0  0  0  0  0
   -1.7571   -0.6740    1.0202 H   0  0  0  0  0  0  0  0  0  0  0  0
   -0.1738   -4.1974    0.8105 H   0  0  0  0  0  0  0  0  0  0  0  0
    4.5614    0.3194   -1.5353 H   0  0  0  0  0  0  0  0  0  0  0  0
    4.6308   -0.0454    0.1255 H   0  0  0  0  0  0  0  0  0  0  0  0
    0.4669   -1.4390    0.0568 H   0  0  0  0  0  0  0  0  0  0  0  0
    2.1211   -3.9461    0.4795 H   0  0  0  0  0  0  0  0  0  0  0  0
   -0.3898    2.0257    1.3361 H   0  0  0  0  0  0  0  0  0  0  0  0
   -2.5534    3.5498    0.9106 H   0  0  0  0  0  0  0  0  0  0  0  0
   -1.9236   -0.2638   -1.6865 H   0  0  0  0  0  0  0  0  0  0  0  0
    3.0064   -1.5013    1.1592 H   0  0  0  0  0  0  0  0  0  0  0  0
    3.9616   -2.5921    0.1331 H   0  0  0  0  0  0  0  0  0  0  0  0
    0.0157    0.7078   -0.7503 H   0  0  0  0  0  0  0  0  0  0  0  0
    1.9325   -0.6482   -1.1117 H   0  0  0  0  0  0  0  0  0  0  0  0
   -5.8320   -0.3866    3.0366 H   0  0  0  0  0  0  0  0  0  0  0  0
   -5.0481    1.1136    3.5543 H   0  0  0  0  0  0  0  0  0  0  0  0
    0.9168   -0.9216    2.1130 H   0  0  0  0  0  0  0  0  0  0  0  0
   -4.3214   -3.3371   -0.1585 H   0  0  0  0  0  0  0  0  0  0  0  0
   -3.5986   -3.2558   -1.7705 H   0  0  0  0  0  0  0  0  0  0  0  0
   -4.4723   -1.8273   -1.2087 H   0  0  0  0  0  0  0  0  0  0  0  0
   -3.1782    3.8717   -2.4464 H   0  0  0  0  0  0  0  0  0  0  0  0
   -3.0169    5.5165   -1.8436 H   0  0  0  0  0  0  0  0  0  0  0  0
   -3.8702    4.3882   -0.8016 H   0  0  0  0  0  0  0  0  0  0  0  0
   -2.2511   -2.7500    2.0961 H   0  0  0  0  0  0  0  0  0  0  0  0
   -0.7325   -2.0730    2.7353 H   0  0  0  0  0  0  0  0  0  0  0  0
   -1.0753   -3.8436    2.8372 H   0  0  0  0  0  0  0  0  0  0  0  0
    2.6070   -1.7827   -2.9293 H   0  0  0  0  0  0  0  0  0  0  0  0
    4.1878   -1.0236   -2.7359 H   0  0  0  0  0  0  0  0  0  0  0  0
    3.9142   -2.6093   -1.9985 H   0  0  0  0  0  0  0  0  0  0  0  0
    1.3059   -4.2929   -2.9046 H   0  0  0  0  0  0  0  0  0  0  0  0
    0.8852   -4.9764   -1.2710 H   0  0  0  0  0  0  0  0  0  0  0  0
    2.6230   -4.7216   -1.7923 H   0  0  0  0  0  0  0  0  0  0  0  0
   -4.4344    1.7416   -2.6507 H   0  0  0  0  0  0  0  0  0  0  0  0
   -2.7245    1.2650   -3.1449 H   0  0  0  0  0  0  0  0  0  0  0  0
   -3.9925    0.0056   -2.6973 H   0  0  0  0  0  0  0  0  0  0  0  0
    4.0655    1.2917    3.8263 H   0  0  0  0  0  0  0  0  0  0  0  0
    3.2482   -0.2042    3.1384 H   0  0  0  0  0  0  0  0  0  0  0  0
    5.0390   -0.0801    3.3140 H   0  0  0  0  0  0  0  0  0  0  0  0
  1  3  2  0
  1  4  1  0
  1 16  1  0
  2  4  1  0
  2  5  1  0
  2  6  2  0
  3  7  1  0
  3 26  1  0
  4 20  2  0
  5  8  1  0
  6  7  1  0
  7 23  2  0
  8 13  1  0
  8 22  2  0
  9 10  2  0
  9 11  1  0
  9 33  1  0
 10 14  1  0
 11 15  1  0
 11 24  1  0
 12 15  1  0
 12 27  2  0
 12 30  1  0
 13 21  2  0
 13 35  1  0
 14 17  1  0
 14 36  1  0
 16 29  1  0
 17 18  1  0
 17 31  1  0
 18 25  1  0
 18 32  1  0
 19 21  1  0
 19 28  2  0
 24 28  1  0
 24 34  1  0
 25 29  1  0
 29 37  1  0
 32 38  1  0
 34 39  1  0
 26 40  1  0
  5 41  1  0
  6 42  1  0
 10 43  1  0
 11 44  1  1
 14 45  1  1
 16 46  1  0
 16 47  1  0
 17 48  1  6
 18 49  1  1
 19 50  1  0
 21 51  1  0
 24 52  1  6
 25 53  1  0
 25 54  1  0
 28 55  1  0
 29 56  1  6
 30 57  1  0
 30 58  1  0
 31 59  1  0
 33 60  1  0
 33 61  1  0
 33 62  1  0
 35 63  1  0
 35 64  1  0
 35 65  1  0
 36 66  1  0
 36 67  1  0
 36 68  1  0
 37 69  1  0
 37 70  1  0
 37 71  1  0
 38 72  1  0
 38 73  1  0
 38 74  1  0
 39 75  1  0
 39 76  1  0
 39 77  1  0
 40 78  1  0
 40 79  1  0
 40 80  1  0
M  END

