46506401
     RDKit          3D

 97100  0  0  1  0  0  0  0  0999 V2000
    1.8176    2.5904    0.1471 C   0  0  0  0  0  0  0  0  0  0  0  0
   -6.5062    1.5985    5.3198 C   0  0  0  0  0  0  0  0  0  0  0  0
   -1.2306    1.0160    4.1413 C   0  0  0  0  0  0  0  0  0  0  0  0
    5.0684    5.2846   -0.9743 C   0  0  0  0  0  0  0  0  0  0  0  0
    7.7269   -1.0661    1.2420 C   0  0  0  0  0  0  0  0  0  0  0  0
    9.2086    3.1035   -0.4757 C   0  0  0  0  0  0  0  0  0  0  0  0
    2.1132    1.5508   -0.9230 C   0  0  0  0  0  0  0  0  0  0  0  0
    1.9358   -3.4343    0.8576 C   0  0  0  0  0  0  0  0  0  0  0  0
    1.6922   -2.9693    2.3025 C   0  0  0  0  0  0  0  0  0  0  0  0
   -2.5700    0.4093   -4.2076 C   0  0  0  0  0  0  0  0  0  0  0  0
   -2.3777    0.0464   -2.8787 C   0  0  0  0  0  0  0  0  0  0  0  0
   -3.6826   -0.1081   -4.8583 C   0  0  0  0  0  0  0  0  0  0  0  0
    0.7478   -2.9854    0.0517 C   0  0  0  0  0  0  0  0  0  0  0  0
   -3.7766   -2.5992    1.0946 C   0  0  0  0  0  0  0  0  0  0  0  0
   -5.3883   -1.3325    2.4406 C   0  0  0  0  0  0  0  0  0  0  0  0
   -3.9252   -2.1953   -0.3238 C   0  0  0  0  0  0  0  0  0  0  0  0
   -5.7860   -0.4093    3.3535 C   0  0  0  0  0  0  0  0  0  0  0  0
    1.4092   -1.4706    2.2954 C   0  0  0  0  0  0  0  0  0  0  0  0
   -3.1412   -0.7520    2.7214 C   0  0  0  0  0  0  0  0  0  0  0  0
   -4.3351   -1.2851   -2.8907 C   0  0  0  0  0  0  0  0  0  0  0  0
    4.6739    2.5554   -0.5059 C   0  0  0  0  0  0  0  0  0  0  0  0
    5.5599    0.4861    0.2258 C   0  0  0  0  0  0  0  0  0  0  0  0
   -5.8842   -1.0936   -6.2383 C   0  0  0  0  0  0  0  0  0  0  0  0
   -4.0585   -1.5387    2.0902 C   0  0  0  0  0  0  0  0  0  0  0  0
   -3.2458   -0.7906   -2.2209 C   0  0  0  0  0  0  0  0  0  0  0  0
    4.4993    1.2333   -0.2707 C   0  0  0  0  0  0  0  0  0  0  0  0
   -4.5754   -0.9510   -4.2305 C   0  0  0  0  0  0  0  0  0  0  0  0
    3.1763    0.5733   -0.5135 C   0  0  1  0  0  0  0  0  0  0  0  0
    0.8181   -1.4587   -0.0703 C   0  0  1  0  0  0  0  0  0  0  0  0
   -2.9690   -1.1592   -0.7628 C   0  0  2  0  0  0  0  0  0  0  0  0
   -4.8626    0.3669    3.9724 C   0  0  0  0  0  0  0  0  0  0  0  0
   -3.5190    0.2019    3.6597 C   0  0  0  0  0  0  0  0  0  0  0  0
    5.9187    3.1494   -0.2439 C   0  0  0  0  0  0  0  0  0  0  0  0
    6.7821    1.0668    0.4826 C   0  0  0  0  0  0  0  0  0  0  0  0
   -7.0925   -1.7045   -6.8218 C   0  0  0  0  0  0  0  0  0  0  0  0
    6.9821    2.4198    0.2502 C   0  0  0  0  0  0  0  0  0  0  0  0
    2.7342   -0.0846    0.7688 C   0  0  0  0  0  0  0  0  0  0  0  0
   -0.5708   -0.9033   -0.0802 C   0  0  0  0  0  0  0  0  0  0  0  0
    1.6728   -0.9580    0.9251 N   0  0  0  0  0  0  0  0  0  0  0  0
   -7.3855   -1.4497   -8.0062 O   0  0  0  0  0  0  0  0  0  0  0  0
   -7.8903   -2.5447   -6.0811 O   0  0  0  0  0  0  0  0  0  0  0  0
    3.4307    0.2069    1.8106 O   0  0  0  0  0  0  0  0  0  0  0  0
   -0.8192    0.1958    0.4746 O   0  0  0  0  0  0  0  0  0  0  0  0
   -5.2051    1.3225    4.9081 O   0  0  0  0  0  0  0  0  0  0  0  0
   -2.6175    0.9983    4.2970 O   0  0  0  0  0  0  0  0  0  0  0  0
    6.1092    4.4989   -0.4783 O   0  0  0  0  0  0  0  0  0  0  0  0
    7.8362    0.3092    0.9772 O   0  0  0  0  0  0  0  0  0  0  0  0
    8.2083    3.0220    0.5060 O   0  0  0  0  0  0  0  0  0  0  0  0
   -5.6884   -1.4653   -4.8889 O   0  0  0  0  0  0  0  0  0  0  0  0
   -1.6173   -1.5509   -0.6778 O   0  0  0  0  0  0  0  0  0  0  0  0
    2.5957    2.6467    0.9325 H   0  0  0  0  0  0  0  0  0  0  0  0
    1.6949    3.5738   -0.3381 H   0  0  0  0  0  0  0  0  0  0  0  0
    0.8128    2.3853    0.6062 H   0  0  0  0  0  0  0  0  0  0  0  0
   -6.7792    0.9306    6.1684 H   0  0  0  0  0  0  0  0  0  0  0  0
   -6.5389    2.6488    5.7028 H   0  0  0  0  0  0  0  0  0  0  0  0
   -7.2413    1.5407    4.4968 H   0  0  0  0  0  0  0  0  0  0  0  0
   -0.8850    0.6132    3.1784 H   0  0  0  0  0  0  0  0  0  0  0  0
   -0.8518    2.0820    4.1833 H   0  0  0  0  0  0  0  0  0  0  0  0
   -0.7345    0.4426    4.9547 H   0  0  0  0  0  0  0  0  0  0  0  0
    4.2218    5.3292   -0.2520 H   0  0  0  0  0  0  0  0  0  0  0  0
    5.3985    6.2898   -1.2575 H   0  0  0  0  0  0  0  0  0  0  0  0
    4.6749    4.8226   -1.9197 H   0  0  0  0  0  0  0  0  0  0  0  0
    8.7329   -1.5586    1.1886 H   0  0  0  0  0  0  0  0  0  0  0  0
    7.0813   -1.6227    0.5385 H   0  0  0  0  0  0  0  0  0  0  0  0
    7.3592   -1.2439    2.2780 H   0  0  0  0  0  0  0  0  0  0  0  0
    8.7819    3.4451   -1.4439 H   0  0  0  0  0  0  0  0  0  0  0  0
    9.6760    2.1061   -0.6911 H   0  0  0  0  0  0  0  0  0  0  0  0
   10.0151    3.7792   -0.1863 H   0  0  0  0  0  0  0  0  0  0  0  0
    2.4399    2.1277   -1.8358 H   0  0  0  0  0  0  0  0  0  0  0  0
    1.1616    1.0743   -1.1928 H   0  0  0  0  0  0  0  0  0  0  0  0
    2.1024   -4.5277    0.8373 H   0  0  0  0  0  0  0  0  0  0  0  0
    2.8381   -2.9583    0.4471 H   0  0  0  0  0  0  0  0  0  0  0  0
    2.5538   -3.2185    2.9303 H   0  0  0  0  0  0  0  0  0  0  0  0
    0.7726   -3.4812    2.6360 H   0  0  0  0  0  0  0  0  0  0  0  0
   -1.9023    1.0656   -4.7472 H   0  0  0  0  0  0  0  0  0  0  0  0
   -1.5306    0.4328   -2.3594 H   0  0  0  0  0  0  0  0  0  0  0  0
   -3.8986    0.1328   -5.9085 H   0  0  0  0  0  0  0  0  0  0  0  0
    0.8238   -3.4727   -0.9534 H   0  0  0  0  0  0  0  0  0  0  0  0
   -0.2230   -3.3050    0.4606 H   0  0  0  0  0  0  0  0  0  0  0  0
   -2.7158   -2.9297    1.3221 H   0  0  0  0  0  0  0  0  0  0  0  0
   -4.3779   -3.5214    1.3311 H   0  0  0  0  0  0  0  0  0  0  0  0
   -6.1582   -1.9369    1.9627 H   0  0  0  0  0  0  0  0  0  0  0  0
   -4.0042   -3.0629   -1.0210 H   0  0  0  0  0  0  0  0  0  0  0  0
   -4.9612   -1.7154   -0.3906 H   0  0  0  0  0  0  0  0  0  0  0  0
   -6.8396   -0.2744    3.6041 H   0  0  0  0  0  0  0  0  0  0  0  0
    2.0864   -1.0038    3.0326 H   0  0  0  0  0  0  0  0  0  0  0  0
    0.3769   -1.2972    2.6000 H   0  0  0  0  0  0  0  0  0  0  0  0
   -2.0950   -0.8900    2.4965 H   0  0  0  0  0  0  0  0  0  0  0  0
   -5.0182   -1.9355   -2.3955 H   0  0  0  0  0  0  0  0  0  0  0  0
    3.9324    3.2252   -0.9042 H   0  0  0  0  0  0  0  0  0  0  0  0
    5.3620   -0.5559    0.3907 H   0  0  0  0  0  0  0  0  0  0  0  0
   -5.8724    0.0117   -6.3620 H   0  0  0  0  0  0  0  0  0  0  0  0
   -5.0046   -1.4817   -6.8013 H   0  0  0  0  0  0  0  0  0  0  0  0
    3.3088   -0.2079   -1.2431 H   0  0  0  0  0  0  0  0  0  0  0  0
    1.2794   -1.2833   -1.0741 H   0  0  0  0  0  0  0  0  0  0  0  0
   -3.1018   -0.2308   -0.2118 H   0  0  0  0  0  0  0  0  0  0  0  0
   -8.7499   -2.9365   -6.4826 H   0  0  0  0  0  0  0  0  0  0  0  0
  1  7  1  0
  8  9  1  0
 10 11  2  0
 10 12  1  0
  8 13  1  0
 14 16  1  0
 15 17  2  0
  9 18  1  0
 14 24  1  0
 15 24  1  0
 19 24  2  0
 11 25  1  0
 20 25  2  0
 21 26  2  0
 22 26  1  0
 12 27  2  0
 20 27  1  0
  7 28  1  0
 26 28  1  0
 13 29  1  0
 16 30  1  0
 25 30  1  0
 17 31  1  0
 19 32  1  0
 31 32  2  0
 21 33  1  0
 22 34  2  0
 23 35  1  0
 33 36  2  0
 34 36  1  0
 28 37  1  0
 29 38  1  0
 18 39  1  0
 29 39  1  0
 37 39  1  0
 35 40  2  0
 35 41  1  0
 37 42  2  0
 38 43  2  0
  2 44  1  0
 31 44  1  0
  3 45  1  0
 32 45  1  0
  4 46  1  0
 33 46  1  0
  5 47  1  0
 34 47  1  0
  6 48  1  0
 36 48  1  0
 23 49  1  0
 27 49  1  0
 30 50  1  0
 38 50  1  0
  1 51  1  0
  1 52  1  0
  1 53  1  0
  2 54  1  0
  2 55  1  0
  2 56  1  0
  3 57  1  0
  3 58  1  0
  3 59  1  0
  4 60  1  0
  4 61  1  0
  4 62  1  0
  5 63  1  0
  5 64  1  0
  5 65  1  0
  6 66  1  0
  6 67  1  0
  6 68  1  0
  7 69  1  0
  7 70  1  0
  8 71  1  0
  8 72  1  0
  9 73  1  0
  9 74  1  0
 10 75  1  0
 11 76  1  0
 12 77  1  0
 13 78  1  0
 13 79  1  0
 14 80  1  0
 14 81  1  0
 15 82  1  0
 16 83  1  0
 16 84  1  0
 17 85  1  0
 18 86  1  0
 18 87  1  0
 19 88  1  0
 20 89  1  0
 21 90  1  0
 22 91  1  0
 23 92  1  0
 23 93  1  0
 28 94  1  6
 29 95  1  6
 30 96  1  1
 41 97  1  0
M  END

