46505401
     RDKit          3D

 27 29  0  0  0  0  0  0  0  0999 V2000
    0.0195    1.1712    0.0816 N   0  0  0  0  0  0  0  0  0  0  0  0
    4.8239    1.1123   -0.0178 N   0  0  0  0  0  0  0  0  0  0  0  0
   -4.7619    1.4253    0.1857 N   0  0  0  0  0  0  0  0  0  0  0  0
    1.1696   -0.9229    0.0033 C   0  0  0  0  0  0  0  0  0  0  0  0
   -1.1813   -0.8294    0.0536 C   0  0  0  0  0  0  0  0  0  0  0  0
    1.1630    0.4519    0.0395 C   0  0  0  0  0  0  0  0  0  0  0  0
   -1.1643    0.5490    0.0894 C   0  0  0  0  0  0  0  0  0  0  0  0
   -0.0394   -1.5996    0.0102 C   0  0  0  0  0  0  0  0  0  0  0  0
    2.3691   -1.6375   -0.0399 C   0  0  0  0  0  0  0  0  0  0  0  0
   -2.4329   -1.4502    0.0629 C   0  0  0  0  0  0  0  0  0  0  0  0
    2.4000    1.0887    0.0310 C   0  0  0  0  0  0  0  0  0  0  0  0
   -2.3531    1.2840    0.1329 C   0  0  0  0  0  0  0  0  0  0  0  0
    3.5960    0.4060   -0.0113 C   0  0  0  0  0  0  0  0  0  0  0  0
   -3.5740    0.6504    0.1412 C   0  0  0  0  0  0  0  0  0  0  0  0
    3.5863   -0.9961   -0.0479 C   0  0  0  0  0  0  0  0  0  0  0  0
   -3.6059   -0.7385    0.1054 C   0  0  0  0  0  0  0  0  0  0  0  0
    5.3191    1.2829    0.8656 H   0  0  0  0  0  0  0  0  0  0  0  0
    5.2084    1.4482   -0.9092 H   0  0  0  0  0  0  0  0  0  0  0  0
   -5.1832    1.8357   -0.6635 H   0  0  0  0  0  0  0  0  0  0  0  0
   -5.2115    1.5772    1.1052 H   0  0  0  0  0  0  0  0  0  0  0  0
   -0.0542   -2.6688   -0.0176 H   0  0  0  0  0  0  0  0  0  0  0  0
    2.3045   -2.7245   -0.0671 H   0  0  0  0  0  0  0  0  0  0  0  0
   -2.4584   -2.5167    0.0354 H   0  0  0  0  0  0  0  0  0  0  0  0
    2.3753    2.1819    0.0602 H   0  0  0  0  0  0  0  0  0  0  0  0
   -2.2529    2.3685    0.1593 H   0  0  0  0  0  0  0  0  0  0  0  0
    4.5253   -1.5326   -0.0810 H   0  0  0  0  0  0  0  0  0  0  0  0
   -4.5871   -1.2163    0.1129 H   0  0  0  0  0  0  0  0  0  0  0  0
  1  6  2  0
  1  7  1  0
  2 13  1  0
  3 14  1  0
  4  6  1  0
  4  8  2  0
  4  9  1  0
  5  7  2  0
  5  8  1  0
  5 10  1  0
  6 11  1  0
  7 12  1  0
  9 15  2  0
 10 16  2  0
 11 13  2  0
 12 14  2  0
 13 15  1  0
 14 16  1  0
  2 17  1  0
  2 18  1  0
  3 19  1  0
  3 20  1  0
  8 21  1  0
  9 22  1  0
 10 23  1  0
 11 24  1  0
 12 25  1  0
 15 26  1  0
 16 27  1  0
M  END

