46507428
     RDKit          3D

 52 54  0  0  1  0  0  0  0  0999 V2000
    2.6934   -2.0356   -2.2709 O   0  0  0  0  0  0  0  0  0  0  0  0
    3.0211   -1.4034   -1.2099 C   0  0  0  0  0  0  0  0  0  0  0  0
    2.0343   -0.5433   -0.5686 C   0  0  0  0  0  0  0  0  0  0  0  0
    0.7690   -0.4862   -1.0334 C   0  0  0  0  0  0  0  0  0  0  0  0
    0.3537   -1.1313   -2.1387 O   0  0  0  0  0  0  0  0  0  0  0  0
    4.3656   -1.5555   -0.6702 C   0  0  0  0  0  0  0  0  0  0  0  0
    5.2577   -2.3994   -1.2850 C   0  0  0  0  0  0  0  0  0  0  0  0
    5.0297   -3.1271   -2.4146 O   0  0  0  0  0  0  0  0  0  0  0  0
    6.5197   -2.5194   -0.6947 C   0  0  0  0  0  0  0  0  0  0  0  0
    6.8729   -1.8514    0.4224 C   0  0  0  0  0  0  0  0  0  0  0  0
    5.9683   -1.0063    1.0269 C   0  0  0  0  0  0  0  0  0  0  0  0
    4.7120   -0.8598    0.4771 C   0  0  0  0  0  0  0  0  0  0  0  0
    3.7097    0.0018    1.1041 C   0  0  0  0  0  0  0  0  0  0  0  0
    4.0430    0.6447    2.1594 O   0  0  0  0  0  0  0  0  0  0  0  0
    2.3742    0.1525    0.5741 C   0  0  0  0  0  0  0  0  0  0  0  0
    1.4307    0.9047    1.2025 C   0  0  0  0  0  0  0  0  0  0  0  0
    0.1024    0.9800    0.7298 C   0  0  0  0  0  0  0  0  0  0  0  0
   -0.7877    1.9338    1.3972 C   0  0  0  0  0  0  0  0  0  0  0  0
   -0.9102    3.2084    0.5832 C   0  0  0  0  0  0  0  0  0  0  0  0
   -2.0314    4.0361    1.0584 O   0  0  0  0  0  0  0  0  0  0  0  0
   -2.2462    5.2465    0.3098 C   0  0  0  0  0  0  0  0  0  0  0  0
   -0.3243    3.6562   -0.3250 O   0  0  0  0  0  0  0  0  0  0  0  0
   -0.2479    0.2786   -0.3864 C   0  0  0  0  0  0  0  0  0  0  0  0
   -1.6104    0.2202   -0.9269 C   0  0  2  0  0  0  0  0  0  0  0  0
   -2.2030    1.4876   -1.1214 O   0  0  0  0  0  0  0  0  0  0  0  0
   -2.5672   -0.4643    0.0418 C   0  0  0  0  0  0  0  0  0  0  0  0
   -3.9705   -0.5618   -0.5091 C   0  0  1  0  0  0  0  0  0  0  0  0
   -4.0268   -1.2447   -1.7183 O   0  0  0  0  0  0  0  0  0  0  0  0
   -4.6579   -1.4672    0.5660 C   0  0  0  0  0  0  0  0  0  0  0  0
   -6.0744   -1.7514    0.3010 C   0  0  0  0  0  0  0  0  0  0  0  0
    0.6236   -1.6940   -2.8395 H   0  0  0  0  0  0  0  0  0  0  0  0
    4.2452   -3.2305   -2.9892 H   0  0  0  0  0  0  0  0  0  0  0  0
    7.2426   -3.1843   -1.1722 H   0  0  0  0  0  0  0  0  0  0  0  0
    7.8627   -1.9730    0.8546 H   0  0  0  0  0  0  0  0  0  0  0  0
    6.2592   -0.4704    1.9165 H   0  0  0  0  0  0  0  0  0  0  0  0
    1.7322    1.4571    2.0794 H   0  0  0  0  0  0  0  0  0  0  0  0
   -0.2056    2.3290    2.3126 H   0  0  0  0  0  0  0  0  0  0  0  0
   -1.7132    1.6329    1.8163 H   0  0  0  0  0  0  0  0  0  0  0  0
   -3.0450    5.8644    0.7081 H   0  0  0  0  0  0  0  0  0  0  0  0
   -2.4379    4.9657   -0.7574 H   0  0  0  0  0  0  0  0  0  0  0  0
   -1.3008    5.8003    0.3407 H   0  0  0  0  0  0  0  0  0  0  0  0
   -1.6980   -0.3044   -1.8989 H   0  0  0  0  0  0  0  0  0  0  0  0
   -2.9557    1.6732   -0.5191 H   0  0  0  0  0  0  0  0  0  0  0  0
   -2.6218    0.0836    0.9561 H   0  0  0  0  0  0  0  0  0  0  0  0
   -2.2596   -1.5372    0.2049 H   0  0  0  0  0  0  0  0  0  0  0  0
   -4.4964    0.3882   -0.4780 H   0  0  0  0  0  0  0  0  0  0  0  0
   -4.9637   -1.2091   -2.0262 H   0  0  0  0  0  0  0  0  0  0  0  0
   -4.5271   -0.9106    1.5112 H   0  0  0  0  0  0  0  0  0  0  0  0
   -4.0276   -2.4047    0.5963 H   0  0  0  0  0  0  0  0  0  0  0  0
   -6.4177   -2.5731    1.0201 H   0  0  0  0  0  0  0  0  0  0  0  0
   -6.6986   -0.8806    0.5234 H   0  0  0  0  0  0  0  0  0  0  0  0
   -6.1963   -2.1652   -0.7202 H   0  0  0  0  0  0  0  0  0  0  0  0
  1  2  2  0
  2  3  1  0
  2  6  1  0
  3  4  1  0
  3 15  2  0
  4  5  1  0
  4 23  2  0
  6  7  2  0
  6 12  1  0
  7  8  1  0
  7  9  1  0
  9 10  2  0
 10 11  1  0
 11 12  2  0
 12 13  1  0
 13 14  2  0
 13 15  1  0
 15 16  1  0
 16 17  2  0
 17 18  1  0
 17 23  1  0
 18 19  1  0
 19 20  1  0
 19 22  2  0
 20 21  1  0
 23 24  1  0
 24 25  1  0
 24 26  1  0
 26 27  1  0
 27 28  1  0
 27 29  1  0
 29 30  1  0
  5 31  1  0
  8 32  1  0
  9 33  1  0
 10 34  1  0
 11 35  1  0
 16 36  1  0
 18 37  1  0
 18 38  1  0
 21 39  1  0
 21 40  1  0
 21 41  1  0
 24 42  1  6
 25 43  1  0
 26 44  1  0
 26 45  1  0
 27 46  1  6
 28 47  1  0
 29 48  1  0
 29 49  1  0
 30 50  1  0
 30 51  1  0
 30 52  1  0
M  END

