46506510
     RDKit          3D

  9  8  0  0  0  0  0  0  0  0999 V2000
   -1.1356   -0.0315   -0.0406 C   0  0  0  0  0  0  0  0  0  0  0  0
    0.2266    0.4955    0.0938 C   0  0  0  0  0  0  0  0  0  0  0  0
    1.3816   -0.3321    0.1840 N   0  0  0  0  0  0  0  0  0  0  0  0
    0.3799    1.7413    0.1312 O   0  0  0  0  0  0  0  0  0  0  0  0
   -1.0696   -1.1486    0.0747 H   0  0  0  0  0  0  0  0  0  0  0  0
   -1.8356    0.3661    0.7217 H   0  0  0  0  0  0  0  0  0  0  0  0
   -1.5944    0.2030   -1.0365 H   0  0  0  0  0  0  0  0  0  0  0  0
    2.2694    0.0095    0.6080 H   0  0  0  0  0  0  0  0  0  0  0  0
    1.3776   -1.3031   -0.1697 H   0  0  0  0  0  0  0  0  0  0  0  0
  1  2  1  0
  2  3  1  0
  2  4  2  0
  1  5  1  0
  1  6  1  0
  1  7  1  0
  3  8  1  0
  3  9  1  0
M  END

