46506612
     RDKit          3D

 44 43  0  0  0  0  0  0  0  0999 V2000
   -6.9706   -0.4986   -0.8002 C   0  0  0  0  0  0  0  0  0  0  0  0
   -6.6743   -0.9327    0.4395 O   0  0  0  0  0  0  0  0  0  0  0  0
   -5.5530   -1.6452    0.6468 C   0  0  0  0  0  0  0  0  0  0  0  0
   -4.2914   -0.9040    0.3085 C   0  0  0  0  0  0  0  0  0  0  0  0
   -4.2193   -0.5312   -1.0086 O   0  0  0  0  0  0  0  0  0  0  0  0
   -3.0758    0.1277   -1.3926 C   0  0  0  0  0  0  0  0  0  0  0  0
   -2.9224    1.3927   -0.6407 C   0  0  0  0  0  0  0  0  0  0  0  0
   -1.7941    2.1234   -0.9732 O   0  0  0  0  0  0  0  0  0  0  0  0
   -0.5913    1.4639   -0.7770 C   0  0  0  0  0  0  0  0  0  0  0  0
   -0.3956    1.0713    0.6619 C   0  0  0  0  0  0  0  0  0  0  0  0
    0.7854    0.4186    0.8547 O   0  0  0  0  0  0  0  0  0  0  0  0
    1.8683    1.2071    0.5039 C   0  0  0  0  0  0  0  0  0  0  0  0
    3.1081    0.3457    0.8084 C   0  0  0  0  0  0  0  0  0  0  0  0
    4.2577    1.0050    0.5071 O   0  0  0  0  0  0  0  0  0  0  0  0
    5.3765    0.2678    0.8134 C   0  0  0  0  0  0  0  0  0  0  0  0
    5.4055   -1.0066    0.0443 C   0  0  0  0  0  0  0  0  0  0  0  0
    6.5192   -1.7998    0.3023 O   0  0  0  0  0  0  0  0  0  0  0  0
    7.7246   -1.2362    0.0128 C   0  0  0  0  0  0  0  0  0  0  0  0
   -6.2473    0.2038   -1.2179 H   0  0  0  0  0  0  0  0  0  0  0  0
   -7.9669    0.0167   -0.8211 H   0  0  0  0  0  0  0  0  0  0  0  0
   -7.0613   -1.3525   -1.5355 H   0  0  0  0  0  0  0  0  0  0  0  0
   -5.5667   -2.6333    0.0989 H   0  0  0  0  0  0  0  0  0  0  0  0
   -5.5175   -1.9237    1.7530 H   0  0  0  0  0  0  0  0  0  0  0  0
   -4.2838   -0.0190    1.0146 H   0  0  0  0  0  0  0  0  0  0  0  0
   -3.3839   -1.4847    0.6138 H   0  0  0  0  0  0  0  0  0  0  0  0
   -2.2362   -0.5953   -1.2260 H   0  0  0  0  0  0  0  0  0  0  0  0
   -3.1931    0.3601   -2.4752 H   0  0  0  0  0  0  0  0  0  0  0  0
   -2.9450    1.2988    0.4442 H   0  0  0  0  0  0  0  0  0  0  0  0
   -3.7949    2.0489   -0.9219 H   0  0  0  0  0  0  0  0  0  0  0  0
   -0.4420    0.5917   -1.4115 H   0  0  0  0  0  0  0  0  0  0  0  0
    0.1876    2.2283   -1.0785 H   0  0  0  0  0  0  0  0  0  0  0  0
   -0.4135    1.9587    1.3402 H   0  0  0  0  0  0  0  0  0  0  0  0
   -1.2290    0.4204    1.0282 H   0  0  0  0  0  0  0  0  0  0  0  0
    1.9216    1.3925   -0.6073 H   0  0  0  0  0  0  0  0  0  0  0  0
    1.9182    2.1753    1.0108 H   0  0  0  0  0  0  0  0  0  0  0  0
    2.9311   -0.5761    0.2132 H   0  0  0  0  0  0  0  0  0  0  0  0
    3.1105    0.0689    1.8795 H   0  0  0  0  0  0  0  0  0  0  0  0
    6.3144    0.8584    0.6927 H   0  0  0  0  0  0  0  0  0  0  0  0
    5.2738   -0.0203    1.8997 H   0  0  0  0  0  0  0  0  0  0  0  0
    5.3671   -0.7540   -1.0395 H   0  0  0  0  0  0  0  0  0  0  0  0
    4.5321   -1.6599    0.3382 H   0  0  0  0  0  0  0  0  0  0  0  0
    7.9036   -0.3322    0.5907 H   0  0  0  0  0  0  0  0  0  0  0  0
    8.5073   -2.0027    0.1933 H   0  0  0  0  0  0  0  0  0  0  0  0
    7.7566   -1.0238   -1.0878 H   0  0  0  0  0  0  0  0  0  0  0  0
  1  2  1  0
  2  3  1  0
  3  4  1  0
  4  5  1  0
  5  6  1  0
  6  7  1  0
  7  8  1  0
  8  9  1  0
  9 10  1  0
 10 11  1  0
 11 12  1  0
 12 13  1  0
 13 14  1  0
 14 15  1  0
 15 16  1  0
 16 17  1  0
 17 18  1  0
  1 19  1  0
  1 20  1  0
  1 21  1  0
  3 22  1  0
  3 23  1  0
  4 24  1  0
  4 25  1  0
  6 26  1  0
  6 27  1  0
  7 28  1  0
  7 29  1  0
  9 30  1  0
  9 31  1  0
 10 32  1  0
 10 33  1  0
 12 34  1  0
 12 35  1  0
 13 36  1  0
 13 37  1  0
 15 38  1  0
 15 39  1  0
 16 40  1  0
 16 41  1  0
 18 42  1  0
 18 43  1  0
 18 44  1  0
M  END

