46504537
     RDKit          3D

 40 41  0  0  1  0  0  0  0  0999 V2000
    4.6946    1.2096   -0.0795 C   0  0  0  0  0  0  0  0  0  0  0  0
    3.6682    2.1328   -0.2616 C   0  0  0  0  0  0  0  0  0  0  0  0
    2.3648    1.6533   -0.4110 C   0  0  0  0  0  0  0  0  0  0  0  0
    4.3893   -0.1340   -0.0551 C   0  0  0  0  0  0  0  0  0  0  0  0
    3.1017   -0.5921   -0.2037 C   0  0  0  0  0  0  0  0  0  0  0  0
    2.8290   -1.9317   -0.1837 C   0  0  0  0  0  0  0  0  0  0  0  0
    3.8172   -2.8724   -0.0115 C   0  0  0  0  0  0  0  0  0  0  0  0
    5.1194   -2.4141    0.1432 C   0  0  0  0  0  0  0  0  0  0  0  0
    5.3875   -1.0751    0.1195 C   0  0  0  0  0  0  0  0  0  0  0  0
    2.0459    0.3172   -0.3881 C   0  0  0  0  0  0  0  0  0  0  0  0
    0.8016   -0.1665   -0.5357 O   0  0  0  0  0  0  0  0  0  0  0  0
   -0.4542    0.2499   -0.7340 C   0  0  0  0  0  0  0  0  0  0  0  0
   -2.4051    1.6487   -0.2357 C   0  0  0  0  0  0  0  0  0  0  0  0
   -3.3912    0.7247   -0.5942 N   0  0  0  0  0  0  0  0  0  0  0  0
   -4.2690   -1.4399   -0.1298 C   0  0  0  0  0  0  0  0  0  0  0  0
   -4.0783   -0.0017    0.3983 C   0  0  0  0  0  0  0  0  0  0  0  0
   -5.5074    0.5063    0.5820 C   0  0  0  0  0  0  0  0  0  0  0  0
   -1.0927    1.1113    0.3035 C   0  0  1  0  0  0  0  0  0  0  0  0
   -1.2590    0.4263    1.4841 O   0  0  0  0  0  0  0  0  0  0  0  0
    5.7389    1.5379    0.0395 H   0  0  0  0  0  0  0  0  0  0  0  0
    3.8956    3.1858   -0.2875 H   0  0  0  0  0  0  0  0  0  0  0  0
    1.5890    2.4251   -0.5579 H   0  0  0  0  0  0  0  0  0  0  0  0
    1.8107   -2.2480   -0.3093 H   0  0  0  0  0  0  0  0  0  0  0  0
    3.6218   -3.9246    0.0044 H   0  0  0  0  0  0  0  0  0  0  0  0
    5.9287   -3.1436    0.2847 H   0  0  0  0  0  0  0  0  0  0  0  0
    6.4253   -0.7239    0.2467 H   0  0  0  0  0  0  0  0  0  0  0  0
   -0.6120    0.7460   -1.7521 H   0  0  0  0  0  0  0  0  0  0  0  0
   -1.1375   -0.6673   -0.7954 H   0  0  0  0  0  0  0  0  0  0  0  0
   -2.8143    2.4219    0.4510 H   0  0  0  0  0  0  0  0  0  0  0  0
   -2.0858    2.2041   -1.1840 H   0  0  0  0  0  0  0  0  0  0  0  0
   -3.1463    0.1432   -1.4401 H   0  0  0  0  0  0  0  0  0  0  0  0
   -3.3089   -1.9389   -0.1469 H   0  0  0  0  0  0  0  0  0  0  0  0
   -4.5624   -1.3011   -1.2041 H   0  0  0  0  0  0  0  0  0  0  0  0
   -5.0605   -1.9619    0.3984 H   0  0  0  0  0  0  0  0  0  0  0  0
   -3.6138   -0.0600    1.3951 H   0  0  0  0  0  0  0  0  0  0  0  0
   -5.5466    1.4950    1.0485 H   0  0  0  0  0  0  0  0  0  0  0  0
   -6.0750   -0.2286    1.1715 H   0  0  0  0  0  0  0  0  0  0  0  0
   -5.9365    0.5467   -0.4526 H   0  0  0  0  0  0  0  0  0  0  0  0
   -0.4386    1.9983    0.4965 H   0  0  0  0  0  0  0  0  0  0  0  0
   -0.4342    0.1413    1.9030 H   0  0  0  0  0  0  0  0  0  0  0  0
  5 10  2  0
  3 10  1  0
  1  4  2  0
  1  2  1  0
  2  3  2  0
  4  9  1  0
  4  5  1  0
  5  6  1  0
  6  7  2  0
  7  8  1  0
  8  9  2  0
 10 11  1  0
 11 12  1  0
 12 18  1  0
 13 18  1  0
 13 14  1  0
 14 16  1  0
 15 16  1  0
 16 17  1  0
 18 19  1  0
  1 20  1  0
  2 21  1  0
  3 22  1  0
  6 23  1  0
  7 24  1  0
  8 25  1  0
  9 26  1  0
 12 27  1  0
 12 28  1  0
 13 29  1  0
 13 30  1  0
 14 31  1  0
 15 32  1  0
 15 33  1  0
 15 34  1  0
 16 35  1  0
 17 36  1  0
 17 37  1  0
 17 38  1  0
 18 39  1  1
 19 40  1  0
M  END

