46508845
     RDKit          3D

 23 24  0  0  1  0  0  0  0  0999 V2000
    0.2338   -1.2849   -0.4081 O   0  0  0  0  0  0  0  0  0  0  0  0
   -3.8666   -0.2045    0.7943 O   0  0  0  0  0  0  0  0  0  0  0  0
   -1.3058    2.1230    1.5142 O   0  0  0  0  0  0  0  0  0  0  0  0
    0.3943    2.8850    0.2159 O   0  0  0  0  0  0  0  0  0  0  0  0
    3.9448   -0.2848    0.3725 O   0  0  0  0  0  0  0  0  0  0  0  0
   -1.6028   -0.0008   -0.0412 N   0  0  0  0  0  0  0  0  0  0  0  0
   -0.9331   -1.2452    0.3927 C   0  0  1  0  0  0  0  0  0  0  0  0
   -0.5702    0.8639   -0.4702 C   0  0  2  0  0  0  0  0  0  0  0  0
   -2.1620   -1.9028   -0.1399 C   0  0  0  0  0  0  0  0  0  0  0  0
   -2.8043   -0.6442    0.3141 C   0  0  0  0  0  0  0  0  0  0  0  0
    0.6387    0.0338   -0.5198 C   0  0  0  0  0  0  0  0  0  0  0  0
   -0.4652    2.0115    0.4351 C   0  0  0  0  0  0  0  0  0  0  0  0
    1.9185    0.4347   -0.6487 C   0  0  0  0  0  0  0  0  0  0  0  0
    3.0490   -0.5281   -0.6843 C   0  0  0  0  0  0  0  0  0  0  0  0
   -2.0272    2.7913    1.6484 H   0  0  0  0  0  0  0  0  0  0  0  0
    3.4901    0.3245    0.9891 H   0  0  0  0  0  0  0  0  0  0  0  0
   -0.7919   -1.3291    1.4701 H   0  0  0  0  0  0  0  0  0  0  0  0
   -0.7206    1.2733   -1.5014 H   0  0  0  0  0  0  0  0  0  0  0  0
   -2.1836   -1.9617   -1.2416 H   0  0  0  0  0  0  0  0  0  0  0  0
   -2.5391   -2.7826    0.4114 H   0  0  0  0  0  0  0  0  0  0  0  0
    2.1198    1.5016   -0.7289 H   0  0  0  0  0  0  0  0  0  0  0  0
    3.5776   -0.5323   -1.6560 H   0  0  0  0  0  0  0  0  0  0  0  0
    2.6056   -1.5414   -0.5179 H   0  0  0  0  0  0  0  0  0  0  0  0
  1  7  1  0
  1 11  1  0
  2 10  2  0
  3 12  1  0
  4 12  2  0
  5 14  1  0
  6  7  1  0
  6  8  1  0
  6 10  1  0
  7  9  1  0
  8 11  1  0
  8 12  1  0
  9 10  1  0
 11 13  2  0
 13 14  1  0
  3 15  1  0
  5 16  1  0
  7 17  1  1
  8 18  1  6
  9 19  1  0
  9 20  1  0
 13 21  1  0
 14 22  1  0
 14 23  1  0
M  END

