46508819
     RDKit          3D

 45 46  0  0  1  0  0  0  0  0999 V2000
    1.7704   -0.3315   -1.4916 O   0  0  0  0  0  0  0  0  0  0  0  0
    2.0499    0.8889   -0.8722 C   0  0  1  0  0  0  0  0  0  0  0  0
    2.9741    0.6667    0.2821 C   0  0  2  0  0  0  0  0  0  0  0  0
    3.3051   -0.7861    0.5187 C   0  0  1  0  0  0  0  0  0  0  0  0
    2.0731   -1.6686    0.3955 C   0  0  2  0  0  0  0  0  0  0  0  0
    1.0572   -1.0980   -0.5401 C   0  0  1  0  0  0  0  0  0  0  0  0
    0.1421   -0.2514    0.0348 O   0  0  0  0  0  0  0  0  0  0  0  0
    1.5494   -1.9048    1.6480 O   0  0  0  0  0  0  0  0  0  0  0  0
    4.3054   -1.1539   -0.3654 O   0  0  0  0  0  0  0  0  0  0  0  0
    2.4654    1.1824    1.4775 O   0  0  0  0  0  0  0  0  0  0  0  0
    2.7072    1.7993   -1.8994 C   0  0  0  0  0  0  0  0  0  0  0  0
    3.0209    3.0310   -1.3788 O   0  0  0  0  0  0  0  0  0  0  0  0
   -2.5722    1.3389   -0.2801 O   0  0  0  0  0  0  0  0  0  0  0  0
   -1.9668    0.3335   -0.9656 C   0  0  1  0  0  0  0  0  0  0  0  0
   -1.1777   -0.6362   -0.1420 C   0  0  2  0  0  0  0  0  0  0  0  0
   -1.7786   -0.9694    1.1782 C   0  0  1  0  0  0  0  0  0  0  0  0
   -2.8098    0.0493    1.6429 C   0  0  2  0  0  0  0  0  0  0  0  0
   -2.3309    1.3884    1.0670 C   0  0  0  0  0  0  0  0  0  0  0  0
   -3.0405    2.4164    1.6425 O   0  0  0  0  0  0  0  0  0  0  0  0
   -2.8545    0.1239    3.0234 O   0  0  0  0  0  0  0  0  0  0  0  0
   -2.4303   -2.2208    1.1619 O   0  0  0  0  0  0  0  0  0  0  0  0
   -3.0077   -0.4155   -1.7710 C   0  0  0  0  0  0  0  0  0  0  0  0
   -3.6508    0.4135   -2.6826 O   0  0  0  0  0  0  0  0  0  0  0  0
    1.0821    1.3423   -0.5550 H   0  0  0  0  0  0  0  0  0  0  0  0
    3.9402    1.1918    0.1065 H   0  0  0  0  0  0  0  0  0  0  0  0
    3.7071   -0.8810    1.5508 H   0  0  0  0  0  0  0  0  0  0  0  0
    2.4499   -2.6343   -0.0551 H   0  0  0  0  0  0  0  0  0  0  0  0
    0.5432   -1.9540   -1.0498 H   0  0  0  0  0  0  0  0  0  0  0  0
    1.0689   -2.7467    1.7441 H   0  0  0  0  0  0  0  0  0  0  0  0
    3.9791   -1.0751   -1.2899 H   0  0  0  0  0  0  0  0  0  0  0  0
    2.7309    0.6524    2.2640 H   0  0  0  0  0  0  0  0  0  0  0  0
    2.0502    1.9339   -2.7786 H   0  0  0  0  0  0  0  0  0  0  0  0
    3.6611    1.3012   -2.1912 H   0  0  0  0  0  0  0  0  0  0  0  0
    3.0037    2.9830   -0.3756 H   0  0  0  0  0  0  0  0  0  0  0  0
   -1.2770    0.7997   -1.7200 H   0  0  0  0  0  0  0  0  0  0  0  0
   -1.1355   -1.5945   -0.7421 H   0  0  0  0  0  0  0  0  0  0  0  0
   -1.0347   -1.0399    1.9987 H   0  0  0  0  0  0  0  0  0  0  0  0
   -3.7805   -0.1962    1.2033 H   0  0  0  0  0  0  0  0  0  0  0  0
   -1.2352    1.5036    1.2132 H   0  0  0  0  0  0  0  0  0  0  0  0
   -3.8481    2.6725    1.1365 H   0  0  0  0  0  0  0  0  0  0  0  0
   -3.5500    0.7746    3.2667 H   0  0  0  0  0  0  0  0  0  0  0  0
   -1.8234   -2.9584    1.3667 H   0  0  0  0  0  0  0  0  0  0  0  0
   -3.7225   -0.8877   -1.0939 H   0  0  0  0  0  0  0  0  0  0  0  0
   -2.4973   -1.2337   -2.3299 H   0  0  0  0  0  0  0  0  0  0  0  0
   -4.1126   -0.1495   -3.3532 H   0  0  0  0  0  0  0  0  0  0  0  0
  1  2  1  0
  2  3  1  0
  3  4  1  0
  4  5  1  0
  5  6  1  0
  1  6  1  0
  6  7  1  0
  5  8  1  0
  4  9  1  0
  3 10  1  0
  2 11  1  0
 11 12  1  0
 13 14  1  0
 14 15  1  0
 15 16  1  0
 16 17  1  0
 17 18  1  0
 13 18  1  0
 18 19  1  0
 17 20  1  0
 16 21  1  0
 15  7  1  0
 14 22  1  0
 22 23  1  0
  2 24  1  1
  3 25  1  6
  4 26  1  1
  5 27  1  6
  6 28  1  6
  8 29  1  0
  9 30  1  0
 10 31  1  0
 11 32  1  0
 11 33  1  0
 12 34  1  0
 14 35  1  6
 15 36  1  6
 16 37  1  1
 17 38  1  6
 18 39  1  0
 19 40  1  0
 20 41  1  0
 21 42  1  0
 22 43  1  0
 22 44  1  0
 23 45  1  0
M  END

