46505966
     RDKit          3D

 32 33  0  0  1  0  0  0  0  0999 V2000
    0.5066    0.2772   -0.1400 C   0  0  1  0  0  0  0  0  0  0  0  0
    0.2790   -1.1911   -0.3311 C   0  0  2  0  0  0  0  0  0  0  0  0
    0.4298   -1.6065   -1.6406 O   0  0  0  0  0  0  0  0  0  0  0  0
   -1.0893   -1.5611    0.1420 C   0  0  1  0  0  0  0  0  0  0  0  0
   -1.2253   -1.4243    1.5128 O   0  0  0  0  0  0  0  0  0  0  0  0
   -2.0533   -0.7034   -0.6373 C   0  0  2  0  0  0  0  0  0  0  0  0
   -1.9794   -1.1584   -1.9750 O   0  0  0  0  0  0  0  0  0  0  0  0
   -1.7315    0.7429   -0.6283 C   0  0  1  0  0  0  0  0  0  0  0  0
   -2.4977    1.4383    0.5068 C   0  0  0  0  0  0  0  0  0  0  0  0
   -3.8309    1.0421    0.4224 O   0  0  0  0  0  0  0  0  0  0  0  0
   -0.4495    1.1088   -0.5664 O   0  0  0  0  0  0  0  0  0  0  0  0
    0.8597    0.4830    1.2588 N   0  0  0  0  0  0  0  0  0  0  0  0
    2.2725    0.5480    1.3896 C   0  0  0  0  0  0  0  0  0  0  0  0
    2.9421    0.5377    2.4782 O   0  0  0  0  0  0  0  0  0  0  0  0
    2.8381    0.6281    0.0942 N   0  0  0  0  0  0  0  0  0  0  0  0
    1.7837    0.6127   -0.8276 C   0  0  0  0  0  0  0  0  0  0  0  0
    1.8815    0.8480   -2.0731 O   0  0  0  0  0  0  0  0  0  0  0  0
    4.2614    0.7107   -0.2009 C   0  0  0  0  0  0  0  0  0  0  0  0
    1.0121   -1.7315    0.3210 H   0  0  0  0  0  0  0  0  0  0  0  0
    0.5433   -2.5809   -1.6719 H   0  0  0  0  0  0  0  0  0  0  0  0
   -1.3363   -2.6233   -0.1038 H   0  0  0  0  0  0  0  0  0  0  0  0
   -2.1516   -1.3545    1.8157 H   0  0  0  0  0  0  0  0  0  0  0  0
   -3.0939   -0.8579   -0.3268 H   0  0  0  0  0  0  0  0  0  0  0  0
   -1.4557   -0.5260   -2.5378 H   0  0  0  0  0  0  0  0  0  0  0  0
   -2.1820    1.1938   -1.5633 H   0  0  0  0  0  0  0  0  0  0  0  0
   -2.4855    2.5440    0.3687 H   0  0  0  0  0  0  0  0  0  0  0  0
   -2.0427    1.2253    1.4896 H   0  0  0  0  0  0  0  0  0  0  0  0
   -4.1421    0.6304    1.2807 H   0  0  0  0  0  0  0  0  0  0  0  0
    0.2071    0.5732    2.0655 H   0  0  0  0  0  0  0  0  0  0  0  0
    4.4705    1.3570   -1.0735 H   0  0  0  0  0  0  0  0  0  0  0  0
    4.7881    1.1266    0.6763 H   0  0  0  0  0  0  0  0  0  0  0  0
    4.6710   -0.3090   -0.3783 H   0  0  0  0  0  0  0  0  0  0  0  0
  1  2  1  0
  1 11  1  6
  1 12  1  0
  1 16  1  0
  2  3  1  0
  2  4  1  0
  4  5  1  0
  4  6  1  0
  6  7  1  0
  6  8  1  0
  8  9  1  0
  8 11  1  0
  9 10  1  0
 12 13  1  0
 13 14  2  0
 13 15  1  0
 15 16  1  0
 15 18  1  0
 16 17  2  0
  2 19  1  1
  3 20  1  0
  4 21  1  1
  5 22  1  0
  6 23  1  1
  7 24  1  0
  8 25  1  6
  9 26  1  0
  9 27  1  0
 10 28  1  0
 12 29  1  0
 18 30  1  0
 18 31  1  0
 18 32  1  0
M  END

