46505816
     RDKit          3D

 19 18  0  0  1  0  0  0  0  0999 V2000
   -2.9737   -1.2377   -0.0550 O   0  0  0  0  0  0  0  0  0  0  0  0
    3.7016   -0.5090    0.1359 O   0  0  0  0  0  0  0  0  0  0  0  0
   -3.1935    0.8576    0.7566 O   0  0  0  0  0  0  0  0  0  0  0  0
    2.2740   -1.8226    1.3407 O   0  0  0  0  0  0  0  0  0  0  0  0
   -0.8151    1.7479    0.1370 N   0  0  0  0  0  0  0  0  0  0  0  0
   -0.0446   -0.5403    0.4420 C   0  0  0  0  0  0  0  0  0  0  0  0
   -1.0699    0.3688   -0.2414 C   0  0  1  0  0  0  0  0  0  0  0  0
    1.3051   -0.1061   -0.0219 C   0  0  0  0  0  0  0  0  0  0  0  0
   -2.4476    0.0256    0.1773 C   0  0  0  0  0  0  0  0  0  0  0  0
    2.4193   -0.8770    0.5393 C   0  0  0  0  0  0  0  0  0  0  0  0
   -3.9289   -1.2742   -0.4026 H   0  0  0  0  0  0  0  0  0  0  0  0
    4.1508    0.3117    0.5697 H   0  0  0  0  0  0  0  0  0  0  0  0
   -0.4759    2.3172   -0.6363 H   0  0  0  0  0  0  0  0  0  0  0  0
   -0.2466    1.7447    0.9960 H   0  0  0  0  0  0  0  0  0  0  0  0
   -0.3059   -1.5707    0.1956 H   0  0  0  0  0  0  0  0  0  0  0  0
   -0.1366   -0.4176    1.5402 H   0  0  0  0  0  0  0  0  0  0  0  0
   -0.9905    0.2624   -1.3414 H   0  0  0  0  0  0  0  0  0  0  0  0
    1.4452    0.9572    0.1687 H   0  0  0  0  0  0  0  0  0  0  0  0
    1.3330   -0.2378   -1.1402 H   0  0  0  0  0  0  0  0  0  0  0  0
  1  9  1  0
  2 10  1  0
  3  9  2  0
  4 10  2  0
  7  5  1  0
  6  7  1  0
  6  8  1  0
  7  9  1  0
  8 10  1  0
  1 11  1  0
  2 12  1  0
  5 13  1  0
  5 14  1  0
  6 15  1  0
  6 16  1  0
  7 17  1  6
  8 18  1  0
  8 19  1  0
M  END

