46505144
     RDKit          3D

 53 56  0  0  1  0  0  0  0  0999 V2000
    1.7972   -0.4690   -1.5504 C   0  0  0  0  0  0  0  0  0  0  0  0
   -2.9878   -0.6554   -1.1766 C   0  0  0  0  0  0  0  0  0  0  0  0
    1.1621   -1.9365    1.1041 C   0  0  0  0  0  0  0  0  0  0  0  0
   -0.1284   -1.3170    1.6596 C   0  0  0  0  0  0  0  0  0  0  0  0
   -2.9873   -0.5060    1.6825 C   0  0  0  0  0  0  0  0  0  0  0  0
   -4.2544    0.3230    1.4332 C   0  0  0  0  0  0  0  0  0  0  0  0
    3.9330    0.9554   -0.4573 C   0  0  0  0  0  0  0  0  0  0  0  0
   -0.4106    1.0963   -1.2361 C   0  0  0  0  0  0  0  0  0  0  0  0
    2.5384    1.3414   -0.1038 C   0  0  0  0  0  0  0  0  0  0  0  0
   -1.8149    1.5648   -1.0836 C   0  0  0  0  0  0  0  0  0  0  0  0
    3.4827   -1.2989    0.5702 C   0  0  0  0  0  0  0  0  0  0  0  0
    2.1104   -0.7982    0.9079 C   0  0  1  0  0  0  0  0  0  0  0  0
    4.4594   -0.2531    0.2046 C   0  0  2  0  0  0  0  0  0  0  0  0
   -0.7251   -0.4985    0.5643 C   0  0  1  0  0  0  0  0  0  0  0  0
   -1.9627    0.2293    0.9379 C   0  0  1  0  0  0  0  0  0  0  0  0
    0.2065    0.5618    0.0240 C   0  0  1  0  0  0  0  0  0  0  0  0
   -3.9575    1.1349    0.1671 C   0  0  1  0  0  0  0  0  0  0  0  0
    1.5998    0.1309   -0.1675 C   0  0  2  0  0  0  0  0  0  0  0  0
   -2.6910    0.5724   -0.3704 C   0  0  2  0  0  0  0  0  0  0  0  0
    5.2102    0.1287    1.3407 O   0  0  0  0  0  0  0  0  0  0  0  0
   -5.0067    0.9200   -0.7166 O   0  0  0  0  0  0  0  0  0  0  0  0
    1.0688   -1.2400   -1.7974 H   0  0  0  0  0  0  0  0  0  0  0  0
    1.6889    0.3902   -2.2686 H   0  0  0  0  0  0  0  0  0  0  0  0
    2.8475   -0.7933   -1.6363 H   0  0  0  0  0  0  0  0  0  0  0  0
   -2.9127   -1.5950   -0.6121 H   0  0  0  0  0  0  0  0  0  0  0  0
   -4.0568   -0.6023   -1.5314 H   0  0  0  0  0  0  0  0  0  0  0  0
   -2.3788   -0.7081   -2.1111 H   0  0  0  0  0  0  0  0  0  0  0  0
    0.9408   -2.3945    0.1196 H   0  0  0  0  0  0  0  0  0  0  0  0
    1.5902   -2.6732    1.8072 H   0  0  0  0  0  0  0  0  0  0  0  0
    0.1209   -0.6483    2.4972 H   0  0  0  0  0  0  0  0  0  0  0  0
   -0.8149   -2.1283    1.9086 H   0  0  0  0  0  0  0  0  0  0  0  0
   -2.7485   -0.4807    2.7835 H   0  0  0  0  0  0  0  0  0  0  0  0
   -3.1313   -1.5520    1.4209 H   0  0  0  0  0  0  0  0  0  0  0  0
   -4.3944    1.0004    2.2984 H   0  0  0  0  0  0  0  0  0  0  0  0
   -5.0767   -0.3889    1.2818 H   0  0  0  0  0  0  0  0  0  0  0  0
    4.0121    0.8806   -1.5785 H   0  0  0  0  0  0  0  0  0  0  0  0
    4.5961    1.8196   -0.1940 H   0  0  0  0  0  0  0  0  0  0  0  0
   -0.3706    0.3556   -2.0702 H   0  0  0  0  0  0  0  0  0  0  0  0
    0.1962    1.9703   -1.6102 H   0  0  0  0  0  0  0  0  0  0  0  0
    2.1961    2.1278   -0.7991 H   0  0  0  0  0  0  0  0  0  0  0  0
    2.5340    1.7754    0.9275 H   0  0  0  0  0  0  0  0  0  0  0  0
   -1.8824    2.5395   -0.5951 H   0  0  0  0  0  0  0  0  0  0  0  0
   -2.2433    1.6843   -2.1128 H   0  0  0  0  0  0  0  0  0  0  0  0
    3.8666   -1.8191    1.4969 H   0  0  0  0  0  0  0  0  0  0  0  0
    3.3699   -2.1199   -0.1771 H   0  0  0  0  0  0  0  0  0  0  0  0
    2.1052   -0.1970    1.8626 H   0  0  0  0  0  0  0  0  0  0  0  0
    5.2200   -0.7228   -0.4864 H   0  0  0  0  0  0  0  0  0  0  0  0
   -0.9204   -1.1995   -0.2995 H   0  0  0  0  0  0  0  0  0  0  0  0
   -1.7168    1.1763    1.4418 H   0  0  0  0  0  0  0  0  0  0  0  0
    0.1889    1.3978    0.7692 H   0  0  0  0  0  0  0  0  0  0  0  0
   -3.8858    2.2189    0.4404 H   0  0  0  0  0  0  0  0  0  0  0  0
    6.1252    0.3744    1.0555 H   0  0  0  0  0  0  0  0  0  0  0  0
   -5.7074    0.3254   -0.3481 H   0  0  0  0  0  0  0  0  0  0  0  0
  3  4  1  0
  5  6  1  0
  7  9  1  0
  8 10  1  0
  3 12  1  0
 11 12  1  0
  7 13  1  0
 11 13  1  0
  4 14  1  0
  5 15  1  0
 14 15  1  0
  8 16  1  0
 14 16  1  0
  6 17  1  0
 18  1  1  6
  9 18  1  0
 12 18  1  0
 16 18  1  0
 19  2  1  6
 10 19  1  0
 15 19  1  0
 17 19  1  0
 13 20  1  0
 17 21  1  0
  1 22  1  0
  1 23  1  0
  1 24  1  0
  2 25  1  0
  2 26  1  0
  2 27  1  0
  3 28  1  0
  3 29  1  0
  4 30  1  0
  4 31  1  0
  5 32  1  0
  5 33  1  0
  6 34  1  0
  6 35  1  0
  7 36  1  0
  7 37  1  0
  8 38  1  0
  8 39  1  0
  9 40  1  0
  9 41  1  0
 10 42  1  0
 10 43  1  0
 11 44  1  0
 11 45  1  0
 12 46  1  1
 13 47  1  6
 14 48  1  6
 15 49  1  1
 16 50  1  1
 17 51  1  1
 20 52  1  0
 21 53  1  0
M  END

