46506412
     RDKit          3D

 24 25  0  0  1  0  0  0  0  0999 V2000
   -1.0583   -0.5565   -1.6419 C   0  0  0  0  0  0  0  0  0  0  0  0
    1.5042   -1.1398    0.4323 C   0  0  0  0  0  0  0  0  0  0  0  0
    0.1189    0.1316   -1.7524 O   0  0  0  0  0  0  0  0  0  0  0  0
    0.1802   -1.1991    0.7602 O   0  0  0  0  0  0  0  0  0  0  0  0
    1.8248    0.2437   -0.0495 C   0  0  1  0  0  0  0  0  0  0  0  0
   -1.6959   -0.1628   -0.3152 C   0  0  2  0  0  0  0  0  0  0  0  0
    0.4452    0.6925   -0.5522 C   0  0  2  0  0  0  0  0  0  0  0  0
   -0.4145    0.0079    0.5143 C   0  0  2  0  0  0  0  0  0  0  0  0
   -2.5149   -1.1707    0.2052 O   0  0  0  0  0  0  0  0  0  0  0  0
    2.0981    1.0445    1.0742 O   0  0  0  0  0  0  0  0  0  0  0  0
   -4.8307   -1.2703   -0.2090 O   0  0  0  0  0  1  0  0  0  0  0  0
   -3.7943   -0.8507    0.5820 N   0  0  0  0  0  4  0  0  0  0  0  0
   -4.0186   -0.1954    1.6159 O   0  0  0  0  0  0  0  0  0  0  0  0
    3.7542    2.4941    0.1904 O   0  0  0  0  0  1  0  0  0  0  0  0
    3.1884    1.8269    1.2324 N   0  0  0  0  0  4  0  0  0  0  0  0
    3.6814    1.9321    2.3736 O   0  0  0  0  0  0  0  0  0  0  0  0
   -1.7526   -0.4190   -2.4854 H   0  0  0  0  0  0  0  0  0  0  0  0
   -0.7954   -1.6483   -1.5187 H   0  0  0  0  0  0  0  0  0  0  0  0
    2.1508   -1.4547    1.2831 H   0  0  0  0  0  0  0  0  0  0  0  0
    1.7779   -1.8427   -0.4070 H   0  0  0  0  0  0  0  0  0  0  0  0
    2.5867    0.2957   -0.8261 H   0  0  0  0  0  0  0  0  0  0  0  0
   -2.1885    0.8206   -0.3679 H   0  0  0  0  0  0  0  0  0  0  0  0
    0.3313    1.7859   -0.5081 H   0  0  0  0  0  0  0  0  0  0  0  0
   -0.5784    0.6343    1.3867 H   0  0  0  0  0  0  0  0  0  0  0  0
  1  3  1  0
  3  7  1  0
  1  6  1  0
  6  8  1  0
  4  8  1  0
  7  8  1  0
  5  7  1  0
  2  4  1  0
  2  5  1  0
  5 10  1  0
  6  9  1  0
  9 12  1  0
 10 15  1  0
 11 12  1  0
 12 13  2  0
 14 15  1  0
 15 16  2  0
  1 17  1  0
  1 18  1  0
  2 19  1  0
  2 20  1  0
  5 21  1  6
  6 22  1  6
  7 23  1  6
  8 24  1  1
M  CHG  4  11  -1  12   1  14  -1  15   1
M  END

