46505414
     RDKit          3D

 24 24  0  0  1  0  0  0  0  0999 V2000
   -0.8801   -2.2967    0.6892 O   0  0  0  0  0  0  0  0  0  0  0  0
   -0.8371   -1.5001   -0.4623 C   0  0  1  0  0  0  0  0  0  0  0  0
   -1.7198   -0.3151   -0.2691 C   0  0  2  0  0  0  0  0  0  0  0  0
   -2.6744   -0.1887   -1.3051 O   0  0  0  0  0  0  0  0  0  0  0  0
   -1.0071    0.9901   -0.1737 C   0  0  1  0  0  0  0  0  0  0  0  0
   -1.7280    1.9128    0.5811 O   0  0  0  0  0  0  0  0  0  0  0  0
    0.3816    0.8148    0.3753 C   0  0  2  0  0  0  0  0  0  0  0  0
    1.0269    2.0614    0.1919 O   0  0  0  0  0  0  0  0  0  0  0  0
    1.1074   -0.2061   -0.4258 C   0  0  2  0  0  0  0  0  0  0  0  0
    0.4328   -1.2861   -0.8247 O   0  0  0  0  0  0  0  0  0  0  0  0
    2.3545   -0.6709    0.3416 C   0  0  0  0  0  0  0  0  0  0  0  0
    3.1075    0.3859    0.7886 O   0  0  0  0  0  0  0  0  0  0  0  0
   -1.4292   -3.1012    0.5814 H   0  0  0  0  0  0  0  0  0  0  0  0
   -1.3185   -2.1261   -1.2725 H   0  0  0  0  0  0  0  0  0  0  0  0
   -2.3320   -0.4301    0.6636 H   0  0  0  0  0  0  0  0  0  0  0  0
   -2.9184    0.7551   -1.4171 H   0  0  0  0  0  0  0  0  0  0  0  0
   -0.8930    1.4241   -1.1992 H   0  0  0  0  0  0  0  0  0  0  0  0
   -1.4841    1.8283    1.5543 H   0  0  0  0  0  0  0  0  0  0  0  0
    0.4056    0.6188    1.4486 H   0  0  0  0  0  0  0  0  0  0  0  0
    0.6555    2.5100   -0.6317 H   0  0  0  0  0  0  0  0  0  0  0  0
    1.5277    0.3222   -1.3329 H   0  0  0  0  0  0  0  0  0  0  0  0
    2.0778   -1.3006    1.2108 H   0  0  0  0  0  0  0  0  0  0  0  0
    2.9713   -1.3359   -0.3281 H   0  0  0  0  0  0  0  0  0  0  0  0
    3.1729    1.1340    0.1350 H   0  0  0  0  0  0  0  0  0  0  0  0
  2  1  1  0
  2  3  1  0
  3  4  1  0
  3  5  1  0
  5  6  1  0
  5  7  1  0
  7  8  1  0
  7  9  1  0
  9 10  1  0
  9 11  1  0
 11 12  1  0
  2 10  1  0
  1 13  1  0
  2 14  1  6
  3 15  1  1
  4 16  1  0
  5 17  1  6
  6 18  1  0
  7 19  1  1
  8 20  1  0
  9 21  1  6
 11 22  1  0
 11 23  1  0
 12 24  1  0
M  END

