46508333
     RDKit          3D

 17 16  0  0  1  0  0  0  0  0999 V2000
   -1.4030   -1.3227    1.0440 N   0  0  0  0  0  0  0  0  0  0  0  0
   -0.6639   -0.1239    0.6892 C   0  0  1  0  0  0  0  0  0  0  0  0
    0.7550   -0.5348    0.4252 C   0  0  1  0  0  0  0  0  0  0  0  0
    0.7442   -1.4492   -0.6205 O   0  0  0  0  0  0  0  0  0  0  0  0
    1.6702    0.5699    0.1705 C   0  0  0  0  0  0  0  0  0  0  0  0
    2.3765    0.5630   -1.0261 O   0  0  0  0  0  0  0  0  0  0  0  0
    1.8826    1.5350    0.9359 O   0  0  0  0  0  0  0  0  0  0  0  0
   -1.3009    0.5521   -0.4436 C   0  0  0  0  0  0  0  0  0  0  0  0
   -0.7956    1.7264   -0.9846 O   0  0  0  0  0  0  0  0  0  0  0  0
   -2.3431    0.0922   -0.9787 O   0  0  0  0  0  0  0  0  0  0  0  0
   -2.4391   -1.1495    1.0838 H   0  0  0  0  0  0  0  0  0  0  0  0
   -1.2474   -2.0104    0.2647 H   0  0  0  0  0  0  0  0  0  0  0  0
   -0.7375    0.5581    1.5762 H   0  0  0  0  0  0  0  0  0  0  0  0
    1.1116   -1.0582    1.3571 H   0  0  0  0  0  0  0  0  0  0  0  0
    0.0129   -1.1773   -1.2374 H   0  0  0  0  0  0  0  0  0  0  0  0
    3.3801    0.5842   -1.0906 H   0  0  0  0  0  0  0  0  0  0  0  0
   -1.0027    2.6451   -0.6374 H   0  0  0  0  0  0  0  0  0  0  0  0
  2  1  1  0
  2  3  1  0
  3  4  1  0
  3  5  1  0
  5  6  1  0
  5  7  2  0
  2  8  1  0
  8  9  1  0
  8 10  2  0
  1 11  1  0
  1 12  1  0
  2 13  1  1
  3 14  1  1
  4 15  1  0
  6 16  1  0
  9 17  1  0
M  END

