46505052
     RDKit          3D

 26 28  0  0  1  0  0  0  0  0999 V2000
   -3.2389   -0.6287    1.5237 O   0  0  0  0  0  0  0  0  0  0  0  0
   -2.6204    0.2853    0.6750 C   0  0  0  0  0  0  0  0  0  0  0  0
   -1.7881   -0.4456   -0.3555 C   0  0  1  0  0  0  0  0  0  0  0  0
   -1.1491    0.3903   -1.2261 O   0  0  0  0  0  0  0  0  0  0  0  0
    0.1032   -0.0875   -1.5000 C   0  0  2  0  0  0  0  0  0  0  0  0
    0.2041   -1.4749   -0.9046 C   0  0  1  0  0  0  0  0  0  0  0  0
    1.5542   -1.5751   -0.5299 O   0  0  0  0  0  0  0  0  0  0  0  0
    1.9582   -0.2725   -0.1938 C   0  0  0  0  0  0  0  0  0  0  0  0
    3.0146    0.0881    0.5677 N   0  0  0  0  0  0  0  0  0  0  0  0
    3.2866    1.3990    0.8107 C   0  0  0  0  0  0  0  0  0  0  0  0
    4.2729    1.7048    1.5205 O   0  0  0  0  0  0  0  0  0  0  0  0
    2.4477    2.3463    0.2534 C   0  0  0  0  0  0  0  0  0  0  0  0
    1.3780    1.9266   -0.5199 C   0  0  0  0  0  0  0  0  0  0  0  0
    1.1228    0.6226   -0.7507 N   0  0  0  0  0  0  0  0  0  0  0  0
   -0.7196   -1.3018    0.2947 C   0  0  2  0  0  0  0  0  0  0  0  0
   -1.2213   -2.5214    0.7268 O   0  0  0  0  0  0  0  0  0  0  0  0
   -3.3294   -1.5113    1.0910 H   0  0  0  0  0  0  0  0  0  0  0  0
   -3.3614    0.9007    0.1248 H   0  0  0  0  0  0  0  0  0  0  0  0
   -1.9856    0.9680    1.2579 H   0  0  0  0  0  0  0  0  0  0  0  0
   -2.4230   -1.1392   -0.9467 H   0  0  0  0  0  0  0  0  0  0  0  0
    0.3122   -0.0869   -2.5894 H   0  0  0  0  0  0  0  0  0  0  0  0
   -0.1276   -2.2612   -1.5848 H   0  0  0  0  0  0  0  0  0  0  0  0
    2.6599    3.3961    0.4440 H   0  0  0  0  0  0  0  0  0  0  0  0
    0.7393    2.7013   -0.9422 H   0  0  0  0  0  0  0  0  0  0  0  0
   -0.1651   -0.7536    1.0825 H   0  0  0  0  0  0  0  0  0  0  0  0
   -0.9241   -2.6695    1.6707 H   0  0  0  0  0  0  0  0  0  0  0  0
  1  2  1  0
  3  2  1  0
  3  4  1  0
  5  4  1  0
  5  6  1  0
  6  7  1  0
  7  8  1  0
  8  9  2  0
  9 10  1  0
 10 11  2  0
 10 12  1  0
 12 13  2  0
 13 14  1  0
  5 14  1  0
  8 14  1  0
  6 15  1  0
  3 15  1  0
 15 16  1  0
  1 17  1  0
  2 18  1  0
  2 19  1  0
  3 20  1  6
  5 21  1  6
  6 22  1  6
 12 23  1  0
 13 24  1  0
 15 25  1  1
 16 26  1  0
M  END

