46506802
     RDKit          3D

 30 31  0  0  1  0  0  0  0  0999 V2000
    2.3436   -2.9274    0.4838 O   0  0  0  0  0  0  0  0  0  0  0  0
    3.5046   -1.1208    0.9752 O   0  0  0  0  0  0  0  0  0  0  0  0
    2.4823    1.6404    0.5820 O   0  0  0  0  0  0  0  0  0  0  0  0
   -4.0158   -0.0870   -0.7920 N   0  0  0  0  0  0  0  0  0  0  0  0
   -1.6698   -0.3177   -1.1347 C   0  0  0  0  0  0  0  0  0  0  0  0
   -2.7481   -0.2584   -0.0882 C   0  0  0  0  0  0  0  0  0  0  0  0
   -0.3192   -0.4898   -0.5837 C   0  0  0  0  0  0  0  0  0  0  0  0
    0.2438   -1.7301   -0.3646 C   0  0  0  0  0  0  0  0  0  0  0  0
    1.5322   -1.8491    0.1615 C   0  0  0  0  0  0  0  0  0  0  0  0
    0.4420    0.6149   -0.2622 C   0  0  0  0  0  0  0  0  0  0  0  0
    2.2599   -0.7262    0.4695 C   0  0  0  0  0  0  0  0  0  0  0  0
    1.7163    0.5116    0.2583 C   0  0  0  0  0  0  0  0  0  0  0  0
   -2.5935    0.9313    0.8270 C   0  0  0  0  0  0  0  0  0  0  0  0
    3.6876   -2.4884    0.6431 C   0  0  0  0  0  0  0  0  0  0  0  0
    1.9046    2.9023    0.3570 C   0  0  0  0  0  0  0  0  0  0  0  0
   -4.1862    0.9138   -1.0476 H   0  0  0  0  0  0  0  0  0  0  0  0
   -3.9333   -0.6044   -1.6998 H   0  0  0  0  0  0  0  0  0  0  0  0
   -1.8777   -1.1568   -1.8084 H   0  0  0  0  0  0  0  0  0  0  0  0
   -1.6905    0.6469   -1.6805 H   0  0  0  0  0  0  0  0  0  0  0  0
   -2.8370   -1.1509    0.5254 H   0  0  0  0  0  0  0  0  0  0  0  0
   -0.2948   -2.6396   -0.5932 H   0  0  0  0  0  0  0  0  0  0  0  0
    0.0647    1.6177   -0.4074 H   0  0  0  0  0  0  0  0  0  0  0  0
   -1.5767    0.9715    1.2529 H   0  0  0  0  0  0  0  0  0  0  0  0
   -2.8361    1.8822    0.2918 H   0  0  0  0  0  0  0  0  0  0  0  0
   -3.3366    0.8274    1.6296 H   0  0  0  0  0  0  0  0  0  0  0  0
    4.2545   -2.5205   -0.3013 H   0  0  0  0  0  0  0  0  0  0  0  0
    4.2253   -3.0510    1.4265 H   0  0  0  0  0  0  0  0  0  0  0  0
    1.7333    3.0127   -0.7332 H   0  0  0  0  0  0  0  0  0  0  0  0
    0.9340    2.9350    0.8894 H   0  0  0  0  0  0  0  0  0  0  0  0
    2.5864    3.7105    0.7239 H   0  0  0  0  0  0  0  0  0  0  0  0
  1  9  1  0
  1 14  1  0
  2 11  1  0
  2 14  1  0
  3 12  1  0
  3 15  1  0
  4  6  1  0
  5  6  1  0
  5  7  1  0
  6 13  1  0
  7  8  1  0
  7 10  2  0
  8  9  2  0
  9 11  1  0
 10 12  1  0
 11 12  2  0
  4 16  1  0
  4 17  1  0
  5 18  1  0
  5 19  1  0
  6 20  1  0
  8 21  1  0
 10 22  1  0
 13 23  1  0
 13 24  1  0
 13 25  1  0
 14 26  1  0
 14 27  1  0
 15 28  1  0
 15 29  1  0
 15 30  1  0
M  END

