46506325
     RDKit          3D

 36 38  0  0  1  0  0  0  0  0999 V2000
   -2.2883    0.1294   -1.5041 O   0  0  0  0  0  0  0  0  0  0  0  0
   -1.0022   -1.2023    1.2300 O   0  0  0  0  0  0  0  0  0  0  0  0
   -3.5486   -2.5925   -0.5223 O   0  0  0  0  0  0  0  0  0  0  0  0
   -4.7114    0.7039    1.0535 O   0  0  0  0  0  0  0  0  0  0  0  0
    3.8573    2.3994    0.5510 O   0  0  0  0  0  0  0  0  0  0  0  0
   -0.1337    0.4093   -0.7063 N   0  0  0  0  0  0  0  0  0  0  0  0
    0.9198    2.2800   -0.2080 N   0  0  0  0  0  0  0  0  0  0  0  0
    1.8106   -1.0339   -0.3922 N   0  0  0  0  0  0  0  0  0  0  0  0
    3.7611    0.0345    0.2342 N   0  0  0  0  0  0  0  0  0  0  0  0
    3.7982   -2.3589   -0.0525 N   0  0  0  0  0  0  0  0  0  0  0  0
   -1.5099   -1.5055   -0.0300 C   0  0  2  0  0  0  0  0  0  0  0  0
   -1.1581   -0.5164   -1.0804 C   0  0  1  0  0  0  0  0  0  0  0  0
   -3.0059   -1.4424    0.0517 C   0  0  1  0  0  0  0  0  0  0  0  0
   -3.3419   -0.2039   -0.6989 C   0  0  1  0  0  0  0  0  0  0  0  0
   -3.6466    0.9723    0.2042 C   0  0  0  0  0  0  0  0  0  0  0  0
    1.1487    0.1300   -0.4159 C   0  0  0  0  0  0  0  0  0  0  0  0
   -0.2566    1.7418   -0.5726 C   0  0  0  0  0  0  0  0  0  0  0  0
    1.8283    1.3092   -0.0979 C   0  0  0  0  0  0  0  0  0  0  0  0
    3.1653    1.2318    0.2313 C   0  0  0  0  0  0  0  0  0  0  0  0
    3.1070   -1.1163   -0.0739 C   0  0  0  0  0  0  0  0  0  0  0  0
    5.2141    2.4121    0.8964 C   0  0  0  0  0  0  0  0  0  0  0  0
   -1.5587   -1.7295    1.8786 H   0  0  0  0  0  0  0  0  0  0  0  0
   -4.4345   -2.3815   -0.9277 H   0  0  0  0  0  0  0  0  0  0  0  0
   -5.5719    0.8159    0.5441 H   0  0  0  0  0  0  0  0  0  0  0  0
    4.6794   -2.4568   -0.6150 H   0  0  0  0  0  0  0  0  0  0  0  0
    3.3979   -3.1263    0.5253 H   0  0  0  0  0  0  0  0  0  0  0  0
   -1.1964   -2.5365   -0.2886 H   0  0  0  0  0  0  0  0  0  0  0  0
   -0.7635   -1.0957   -1.9668 H   0  0  0  0  0  0  0  0  0  0  0  0
   -3.3584   -1.3669    1.1165 H   0  0  0  0  0  0  0  0  0  0  0  0
   -4.2179   -0.4123   -1.3425 H   0  0  0  0  0  0  0  0  0  0  0  0
   -2.7357    1.1705    0.8189 H   0  0  0  0  0  0  0  0  0  0  0  0
   -3.8253    1.8896   -0.3914 H   0  0  0  0  0  0  0  0  0  0  0  0
   -1.1409    2.3402   -0.7226 H   0  0  0  0  0  0  0  0  0  0  0  0
    5.7131    1.6187    0.2719 H   0  0  0  0  0  0  0  0  0  0  0  0
    5.7058    3.3638    0.7004 H   0  0  0  0  0  0  0  0  0  0  0  0
    5.3000    2.1252    1.9506 H   0  0  0  0  0  0  0  0  0  0  0  0
  1 12  1  0
  1 14  1  0
 11  2  1  0
 13  3  1  0
  4 15  1  0
  5 19  1  0
  5 21  1  0
 12  6  1  0
  6 16  1  0
  6 17  1  0
  7 17  2  0
  7 18  1  0
  8 16  1  0
  8 20  2  0
  9 19  2  0
  9 20  1  0
 10 20  1  0
 11 12  1  0
 11 13  1  0
 13 14  1  0
 14 15  1  0
 16 18  2  0
 18 19  1  0
  2 22  1  0
  3 23  1  0
  4 24  1  0
 10 25  1  0
 10 26  1  0
 11 27  1  6
 12 28  1  6
 13 29  1  1
 14 30  1  6
 15 31  1  0
 15 32  1  0
 17 33  1  0
 21 34  1  0
 21 35  1  0
 21 36  1  0
M  END

