46505876
     RDKit          3D

 32 32  0  0  0  0  0  0  0  0999 V2000
   -0.7831    0.8514   -2.2404 O   0  0  0  0  0  0  0  0  0  0  0  0
   -0.1070   -0.3868    2.2087 O   0  0  0  0  0  0  0  0  0  0  0  0
   -1.0545    3.9968    1.1160 O   0  0  0  0  0  0  0  0  0  0  0  0
   -0.9695    2.4440   -0.6180 N   0  0  0  0  0  0  0  0  0  0  0  0
   -0.6135    1.7887    1.7013 N   0  0  0  0  0  0  0  0  0  0  0  0
   -0.5822   -0.0143   -0.0672 C   0  0  0  0  0  0  0  0  0  0  0  0
    0.5043   -0.9268   -0.4950 C   0  0  0  0  0  0  0  0  0  0  0  0
    1.8775   -0.4416   -0.5788 C   0  0  0  0  0  0  0  0  0  0  0  0
   -1.9078   -0.7779   -0.0950 C   0  0  0  0  0  0  0  0  0  0  0  0
   -0.7828    1.1146   -1.0192 C   0  0  0  0  0  0  0  0  0  0  0  0
   -0.4202    0.4364    1.3302 C   0  0  0  0  0  0  0  0  0  0  0  0
    2.4688    0.0724    0.7078 C   0  0  0  0  0  0  0  0  0  0  0  0
    2.1593    0.5890   -1.6375 C   0  0  0  0  0  0  0  0  0  0  0  0
   -1.9522   -1.9530    0.7803 C   0  0  0  0  0  0  0  0  0  0  0  0
   -0.8887    2.8062    0.7453 C   0  0  0  0  0  0  0  0  0  0  0  0
   -2.1449   -3.1623    0.2779 C   0  0  0  0  0  0  0  0  0  0  0  0
   -1.1761    3.2305   -1.2976 H   0  0  0  0  0  0  0  0  0  0  0  0
   -0.5509    2.0378    2.7056 H   0  0  0  0  0  0  0  0  0  0  0  0
    0.1714   -1.4219   -1.4517 H   0  0  0  0  0  0  0  0  0  0  0  0
    0.5022   -1.7885    0.2398 H   0  0  0  0  0  0  0  0  0  0  0  0
    2.5265   -1.3254   -0.8674 H   0  0  0  0  0  0  0  0  0  0  0  0
   -2.7476   -0.0947    0.2293 H   0  0  0  0  0  0  0  0  0  0  0  0
   -2.1817   -1.0520   -1.1511 H   0  0  0  0  0  0  0  0  0  0  0  0
    2.4961   -0.7137    1.5133 H   0  0  0  0  0  0  0  0  0  0  0  0
    1.9815    0.9712    1.1115 H   0  0  0  0  0  0  0  0  0  0  0  0
    3.5430    0.3560    0.5807 H   0  0  0  0  0  0  0  0  0  0  0  0
    1.8848    0.2825   -2.6459 H   0  0  0  0  0  0  0  0  0  0  0  0
    1.7633    1.5749   -1.3293 H   0  0  0  0  0  0  0  0  0  0  0  0
    3.2815    0.7183   -1.6539 H   0  0  0  0  0  0  0  0  0  0  0  0
   -1.8347   -1.8468    1.8412 H   0  0  0  0  0  0  0  0  0  0  0  0
   -2.1879   -4.0656    0.8658 H   0  0  0  0  0  0  0  0  0  0  0  0
   -2.2745   -3.2996   -0.8067 H   0  0  0  0  0  0  0  0  0  0  0  0
  1 10  2  0
  2 11  2  0
  3 15  2  0
  4 10  1  0
  4 15  1  0
  5 11  1  0
  5 15  1  0
  6  7  1  0
  6  9  1  0
  6 10  1  0
  6 11  1  0
  7  8  1  0
  8 12  1  0
  8 13  1  0
  9 14  1  0
 14 16  2  3
  4 17  1  0
  5 18  1  0
  7 19  1  0
  7 20  1  0
  8 21  1  0
  9 22  1  0
  9 23  1  0
 12 24  1  0
 12 25  1  0
 12 26  1  0
 13 27  1  0
 13 28  1  0
 13 29  1  0
 14 30  1  0
 16 31  1  0
 16 32  1  0
M  END

