46507540
     RDKit          3D

 44 46  0  0  1  0  0  0  0  0999 V2000
    0.2306   -0.7450    0.0633 O   0  0  0  0  0  0  0  0  0  0  0  0
    1.1214   -1.2302    1.0033 C   0  0  0  0  0  0  0  0  0  0  0  0
    2.4847   -1.6068    0.5403 C   0  0  0  0  0  0  0  0  0  0  0  0
    0.7472   -1.3301    2.1860 O   0  0  0  0  0  0  0  0  0  0  0  0
    3.2926   -2.1096    1.7250 C   0  0  0  0  0  0  0  0  0  0  0  0
    3.4262   -1.1654    2.7172 O   0  0  0  0  0  0  0  0  0  0  0  0
    3.1944   -0.4542   -0.0575 C   0  0  0  0  0  0  0  0  0  0  0  0
    3.6804   -0.5716   -1.3364 C   0  0  0  0  0  0  0  0  0  0  0  0
    3.3714    0.7201    0.6404 C   0  0  0  0  0  0  0  0  0  0  0  0
    4.0423    1.7704    0.0340 C   0  0  0  0  0  0  0  0  0  0  0  0
    4.5134    1.6250   -1.2358 C   0  0  0  0  0  0  0  0  0  0  0  0
    4.3519    0.4753   -1.9474 C   0  0  0  0  0  0  0  0  0  0  0  0
   -3.4821   -0.6885   -0.1565 C   0  0  2  0  0  0  0  0  0  0  0  0
   -2.0656   -1.2012   -0.2914 C   0  0  0  0  0  0  0  0  0  0  0  0
   -3.9335    0.0081   -1.4246 C   0  0  0  0  0  0  0  0  0  0  0  0
   -2.9780    1.1794   -1.4447 C   0  0  0  0  0  0  0  0  0  0  0  0
   -2.6976    1.4121    0.0134 C   0  0  2  0  0  0  0  0  0  0  0  0
   -1.2163    1.1028    0.2297 C   0  0  0  0  0  0  0  0  0  0  0  0
   -1.0744   -0.3788    0.4765 C   0  0  2  0  0  0  0  0  0  0  0  0
   -3.4327    0.4393    0.7639 N   0  0  0  0  0  0  0  0  0  0  0  0
   -4.7198    0.8645    1.2043 C   0  0  0  0  0  0  0  0  0  0  0  0
    2.4178   -2.4391   -0.1859 H   0  0  0  0  0  0  0  0  0  0  0  0
    2.7822   -3.0073    2.1316 H   0  0  0  0  0  0  0  0  0  0  0  0
    4.2927   -2.3721    1.3531 H   0  0  0  0  0  0  0  0  0  0  0  0
    4.3429   -0.7762    2.7841 H   0  0  0  0  0  0  0  0  0  0  0  0
    3.5679   -1.4815   -1.9366 H   0  0  0  0  0  0  0  0  0  0  0  0
    3.0098    0.8595    1.6397 H   0  0  0  0  0  0  0  0  0  0  0  0
    4.1705    2.6877    0.6034 H   0  0  0  0  0  0  0  0  0  0  0  0
    5.0381    2.4608   -1.6962 H   0  0  0  0  0  0  0  0  0  0  0  0
    4.7286    0.3633   -2.9589 H   0  0  0  0  0  0  0  0  0  0  0  0
   -4.2021   -1.4569    0.1417 H   0  0  0  0  0  0  0  0  0  0  0  0
   -2.0628   -2.2266    0.1728 H   0  0  0  0  0  0  0  0  0  0  0  0
   -1.7722   -1.3532   -1.3490 H   0  0  0  0  0  0  0  0  0  0  0  0
   -4.9570    0.3866   -1.2414 H   0  0  0  0  0  0  0  0  0  0  0  0
   -3.8436   -0.6303   -2.3163 H   0  0  0  0  0  0  0  0  0  0  0  0
   -3.3993    2.0619   -1.9551 H   0  0  0  0  0  0  0  0  0  0  0  0
   -2.0900    0.8680   -2.0241 H   0  0  0  0  0  0  0  0  0  0  0  0
   -2.9300    2.4604    0.2717 H   0  0  0  0  0  0  0  0  0  0  0  0
   -0.6864    1.4015   -0.6862 H   0  0  0  0  0  0  0  0  0  0  0  0
   -0.8157    1.6763    1.0799 H   0  0  0  0  0  0  0  0  0  0  0  0
   -1.2204   -0.5383    1.5641 H   0  0  0  0  0  0  0  0  0  0  0  0
   -4.6890    1.1311    2.2974 H   0  0  0  0  0  0  0  0  0  0  0  0
   -5.0292    1.7383    0.6172 H   0  0  0  0  0  0  0  0  0  0  0  0
   -5.5092    0.0706    1.1267 H   0  0  0  0  0  0  0  0  0  0  0  0
 19  1  1  0
  1  2  1  0
  2  3  1  0
  3  7  1  0
  3  5  1  0
  2  4  2  0
  5  6  1  0
  7  8  2  0
  7  9  1  0
  8 12  1  0
  9 10  2  0
 10 11  1  0
 11 12  2  0
 13 14  1  0
 13 15  1  0
 13 20  1  0
 14 19  1  0
 15 16  1  0
 16 17  1  0
 17 18  1  0
 17 20  1  0
 18 19  1  0
 20 21  1  0
  3 22  1  0
  5 23  1  0
  5 24  1  0
  6 25  1  0
  8 26  1  0
  9 27  1  0
 10 28  1  0
 11 29  1  0
 12 30  1  0
 13 31  1  1
 14 32  1  0
 14 33  1  0
 15 34  1  0
 15 35  1  0
 16 36  1  0
 16 37  1  0
 17 38  1  1
 18 39  1  0
 18 40  1  0
 19 41  1  1
 21 42  1  0
 21 43  1  0
 21 44  1  0
M  END

