46507354
     RDKit          3D

 68 72  0  0  0  0  0  0  0  0999 V2000
    9.3917    0.6993   -2.7972 F   0  0  0  0  0  0  0  0  0  0  0  0
    8.7240    2.7799   -2.3330 F   0  0  0  0  0  0  0  0  0  0  0  0
   10.6354    2.0214   -1.4118 F   0  0  0  0  0  0  0  0  0  0  0  0
   -9.9949    2.2253   -2.8666 F   0  0  0  0  0  0  0  0  0  0  0  0
   -9.8636    0.1263   -3.7068 F   0  0  0  0  0  0  0  0  0  0  0  0
  -11.2034    0.5460   -1.9470 F   0  0  0  0  0  0  0  0  0  0  0  0
   -0.1002   -1.0803   -0.6092 O   0  0  0  0  0  0  0  0  0  0  0  0
   -2.1242   -0.6603   -1.4245 O   0  0  0  0  0  0  0  0  0  0  0  0
    2.6951   -1.2993   -0.5358 N   0  0  0  0  0  0  0  0  0  0  0  0
    5.1531   -0.0894   -0.0178 N   0  0  0  0  0  0  0  0  0  0  0  0
   -4.1193    0.2036    0.2139 N   0  0  0  0  0  0  0  0  0  0  0  0
   -7.9822   -0.7359    1.5727 N   0  0  0  0  0  0  0  0  0  0  0  0
    3.8110   -2.0175    0.0129 C   0  0  0  0  0  0  0  0  0  0  0  0
    2.9048    0.0265   -0.9250 C   0  0  0  0  0  0  0  0  0  0  0  0
    4.5391   -0.9991    0.9275 C   0  0  0  0  0  0  0  0  0  0  0  0
    4.3702    0.4027   -1.1071 C   0  0  0  0  0  0  0  0  0  0  0  0
    1.8509   -2.1675   -1.2262 C   0  0  0  0  0  0  0  0  0  0  0  0
    6.5094    0.2849    0.1687 C   0  0  0  0  0  0  0  0  0  0  0  0
    0.5272   -1.5672   -1.7304 C   0  0  0  0  0  0  0  0  0  0  0  0
    7.2704    0.7908   -0.8753 C   0  0  0  0  0  0  0  0  0  0  0  0
    7.1314    0.1572    1.4074 C   0  0  0  0  0  0  0  0  0  0  0  0
    8.5869    1.1461   -0.6724 C   0  0  0  0  0  0  0  0  0  0  0  0
    8.4521    0.5077    1.6339 C   0  0  0  0  0  0  0  0  0  0  0  0
    9.1636    1.0016    0.5755 C   0  0  0  0  0  0  0  0  0  0  0  0
    9.3780    1.6795   -1.8391 C   0  0  0  0  0  0  0  0  0  0  0  0
   -1.3966   -0.6113   -0.4397 C   0  0  0  0  0  0  0  0  0  0  0  0
   -1.8086   -0.1053    0.8699 C   0  0  0  0  0  0  0  0  0  0  0  0
   -3.0668    0.3263    1.1693 C   0  0  0  0  0  0  0  0  0  0  0  0
   -5.4474   -0.0406    0.6880 C   0  0  0  0  0  0  0  0  0  0  0  0
   -6.5723    0.1787   -0.0678 C   0  0  0  0  0  0  0  0  0  0  0  0
   -0.8199    0.0394    1.8530 C   0  0  0  0  0  0  0  0  0  0  0  0
   -7.8624   -0.1595    0.3486 C   0  0  0  0  0  0  0  0  0  0  0  0
   -3.3316    0.9050    2.4318 C   0  0  0  0  0  0  0  0  0  0  0  0
   -6.4679    0.7585   -1.3343 C   0  0  0  0  0  0  0  0  0  0  0  0
   -5.6183   -0.6326    1.9305 C   0  0  0  0  0  0  0  0  0  0  0  0
   -1.0999    0.6025    3.0760 C   0  0  0  0  0  0  0  0  0  0  0  0
   -8.9822    0.0559   -0.4231 C   0  0  0  0  0  0  0  0  0  0  0  0
   -8.8491    0.6229   -1.6520 C   0  0  0  0  0  0  0  0  0  0  0  0
   -2.3724    1.0499    3.3860 C   0  0  0  0  0  0  0  0  0  0  0  0
   -7.5968    0.9620   -2.0807 C   0  0  0  0  0  0  0  0  0  0  0  0
   -6.9085   -0.9552    2.3144 C   0  0  0  0  0  0  0  0  0  0  0  0
  -10.0015    0.8919   -2.5580 C   0  0  0  0  0  0  0  0  0  0  0  0
   -4.0017    0.2768   -0.8018 H   0  0  0  0  0  0  0  0  0  0  0  0
    4.5680   -2.3417   -0.7167 H   0  0  0  0  0  0  0  0  0  0  0  0
    3.4814   -2.8623    0.6371 H   0  0  0  0  0  0  0  0  0  0  0  0
    2.4458    0.1753   -1.9475 H   0  0  0  0  0  0  0  0  0  0  0  0
    2.4487    0.7947   -0.2452 H   0  0  0  0  0  0  0  0  0  0  0  0
    5.2226   -1.5312    1.5789 H   0  0  0  0  0  0  0  0  0  0  0  0
    3.7017   -0.4966    1.4839 H   0  0  0  0  0  0  0  0  0  0  0  0
    4.4508    1.5154   -1.0992 H   0  0  0  0  0  0  0  0  0  0  0  0
    4.6844   -0.0316   -2.0839 H   0  0  0  0  0  0  0  0  0  0  0  0
    2.3669   -2.7072   -2.0831 H   0  0  0  0  0  0  0  0  0  0  0  0
    1.5832   -3.0205   -0.5252 H   0  0  0  0  0  0  0  0  0  0  0  0
    0.7664   -0.7940   -2.4987 H   0  0  0  0  0  0  0  0  0  0  0  0
    0.0195   -2.3687   -2.2908 H   0  0  0  0  0  0  0  0  0  0  0  0
    6.8709    0.9239   -1.8677 H   0  0  0  0  0  0  0  0  0  0  0  0
    6.5811   -0.2261    2.2522 H   0  0  0  0  0  0  0  0  0  0  0  0
    8.9428    0.4108    2.5863 H   0  0  0  0  0  0  0  0  0  0  0  0
   10.1946    1.2833    0.7073 H   0  0  0  0  0  0  0  0  0  0  0  0
    0.1725   -0.3159    1.5976 H   0  0  0  0  0  0  0  0  0  0  0  0
   -4.3475    1.2937    2.6298 H   0  0  0  0  0  0  0  0  0  0  0  0
   -5.4906    1.0583   -1.7323 H   0  0  0  0  0  0  0  0  0  0  0  0
   -4.7975   -0.8840    2.5622 H   0  0  0  0  0  0  0  0  0  0  0  0
   -0.3341    0.7046    3.8224 H   0  0  0  0  0  0  0  0  0  0  0  0
   -9.9428   -0.2201   -0.0562 H   0  0  0  0  0  0  0  0  0  0  0  0
   -2.5989    1.4982    4.3468 H   0  0  0  0  0  0  0  0  0  0  0  0
   -7.4610    1.4186   -3.0624 H   0  0  0  0  0  0  0  0  0  0  0  0
   -7.0314   -1.4243    3.3044 H   0  0  0  0  0  0  0  0  0  0  0  0
  1 25  1  0
  2 25  1  0
  3 25  1  0
  4 42  1  0
  5 42  1  0
  6 42  1  0
  7 19  1  0
  7 26  1  0
  8 26  2  0
  9 13  1  0
  9 14  1  0
  9 17  1  0
 10 15  1  0
 10 16  1  0
 10 18  1  0
 11 28  1  0
 11 29  1  0
 12 32  2  0
 12 41  1  0
 13 15  1  0
 14 16  1  0
 17 19  1  0
 18 20  2  0
 18 21  1  0
 20 22  1  0
 21 23  2  0
 22 24  2  0
 22 25  1  0
 23 24  1  0
 26 27  1  0
 27 28  1  0
 27 31  2  0
 28 33  2  0
 29 30  2  0
 29 35  1  0
 30 32  1  0
 30 34  1  0
 31 36  1  0
 32 37  1  0
 33 39  1  0
 34 40  2  0
 35 41  2  0
 36 39  2  0
 37 38  2  0
 38 40  1  0
 38 42  1  0
 11 43  1  0
 13 44  1  0
 13 45  1  0
 14 46  1  0
 14 47  1  0
 15 48  1  0
 15 49  1  0
 16 50  1  0
 16 51  1  0
 17 52  1  0
 17 53  1  0
 19 54  1  0
 19 55  1  0
 20 56  1  0
 21 57  1  0
 23 58  1  0
 24 59  1  0
 31 60  1  0
 33 61  1  0
 34 62  1  0
 35 63  1  0
 36 64  1  0
 37 65  1  0
 39 66  1  0
 40 67  1  0
 41 68  1  0
M  END

