46508089
     RDKit          3D

 26 26  0  0  0  0  0  0  0  0999 V2000
   -1.0188   -0.8164    0.9659 C   0  0  0  0  0  0  0  0  0  0  0  0
    0.4206   -1.0823    0.5734 C   0  0  0  0  0  0  0  0  0  0  0  0
    0.5420    1.1958   -0.3933 C   0  0  0  0  0  0  0  0  0  0  0  0
   -0.9381    1.1894   -0.5361 C   0  0  0  0  0  0  0  0  0  0  0  0
   -1.6036   -0.1225   -0.2723 C   0  0  2  0  0  0  0  0  0  0  0  0
    1.1057    0.2583    0.6078 C   0  0  2  0  0  0  0  0  0  0  0  0
   -3.9102   -0.9880    0.0864 O   0  0  0  0  0  0  0  0  0  0  0  0
   -3.0628    0.0860   -0.1019 C   0  0  0  0  0  0  0  0  0  0  0  0
   -3.5545    1.2425   -0.1256 O   0  0  0  0  0  0  0  0  0  0  0  0
    2.5946    0.1281    0.4190 C   0  0  0  0  0  0  0  0  0  0  0  0
    2.9156   -0.4900   -0.8597 N   0  0  0  0  0  0  0  0  0  0  0  0
   -1.5868   -1.7260    1.1689 H   0  0  0  0  0  0  0  0  0  0  0  0
   -1.0617   -0.0653    1.7982 H   0  0  0  0  0  0  0  0  0  0  0  0
    0.4603   -1.4328   -0.4974 H   0  0  0  0  0  0  0  0  0  0  0  0
    0.9013   -1.8468    1.1692 H   0  0  0  0  0  0  0  0  0  0  0  0
    0.8410    2.2398   -0.0797 H   0  0  0  0  0  0  0  0  0  0  0  0
    1.0693    1.0257   -1.3666 H   0  0  0  0  0  0  0  0  0  0  0  0
   -1.4340    1.9506    0.1142 H   0  0  0  0  0  0  0  0  0  0  0  0
   -1.1840    1.4863   -1.5800 H   0  0  0  0  0  0  0  0  0  0  0  0
   -1.4520   -0.8389   -1.1063 H   0  0  0  0  0  0  0  0  0  0  0  0
    0.9510    0.6743    1.6332 H   0  0  0  0  0  0  0  0  0  0  0  0
   -3.9582   -1.3916    1.0145 H   0  0  0  0  0  0  0  0  0  0  0  0
    3.0683   -0.4547    1.2447 H   0  0  0  0  0  0  0  0  0  0  0  0
    3.0277    1.1579    0.4569 H   0  0  0  0  0  0  0  0  0  0  0  0
    3.6228    0.0913   -1.3552 H   0  0  0  0  0  0  0  0  0  0  0  0
    3.2445   -1.4705   -0.7102 H   0  0  0  0  0  0  0  0  0  0  0  0
  1  2  1  0
  3  4  1  0
  1  5  1  0
  4  5  1  0
  5  8  1  0
  2  6  1  0
  3  6  1  0
  6 10  1  0
  7  8  1  0
  8  9  2  0
 10 11  1  0
  1 12  1  0
  1 13  1  0
  2 14  1  0
  2 15  1  0
  3 16  1  0
  3 17  1  0
  4 18  1  0
  4 19  1  0
  5 20  1  6
  6 21  1  1
  7 22  1  0
 10 23  1  0
 10 24  1  0
 11 25  1  0
 11 26  1  0
M  END

