46507515
     RDKit          3D

 44 43  0  0  0  0  0  0  0  0999 V2000
    4.9175   -0.0891   -1.5428 N   0  0  0  0  0  0  0  0  0  0  0  0
    5.5026    0.1058   -0.2613 C   0  0  0  0  0  0  0  0  0  0  0  0
    4.5615    0.3260    0.8725 C   0  0  0  0  0  0  0  0  0  0  0  0
    3.6795    1.5399    0.7223 C   0  0  0  0  0  0  0  0  0  0  0  0
    2.7776    1.5065   -0.4700 C   0  0  0  0  0  0  0  0  0  0  0  0
    1.8564    0.3204   -0.4071 C   0  0  0  0  0  0  0  0  0  0  0  0
    1.0179    0.4339    0.8415 C   0  0  0  0  0  0  0  0  0  0  0  0
    0.0983   -0.6854    0.9436 N   0  0  0  0  0  0  0  0  0  0  0  0
   -0.9340   -0.6764   -0.0608 C   0  0  0  0  0  0  0  0  0  0  0  0
   -1.8085   -1.8886    0.1818 C   0  0  0  0  0  0  0  0  0  0  0  0
   -2.9282   -1.9973   -0.8037 C   0  0  0  0  0  0  0  0  0  0  0  0
   -3.8747   -0.8535   -0.8223 C   0  0  0  0  0  0  0  0  0  0  0  0
   -4.5732   -0.6259    0.4985 C   0  0  0  0  0  0  0  0  0  0  0  0
   -5.5274    0.5668    0.3986 C   0  0  0  0  0  0  0  0  0  0  0  0
   -4.8235    1.7835    0.0517 N   0  0  0  0  0  0  0  0  0  0  0  0
    4.6935   -1.0529   -1.8042 H   0  0  0  0  0  0  0  0  0  0  0  0
    5.3042    0.5045   -2.3073 H   0  0  0  0  0  0  0  0  0  0  0  0
    6.2778    0.9142   -0.2979 H   0  0  0  0  0  0  0  0  0  0  0  0
    6.0937   -0.8243   -0.0287 H   0  0  0  0  0  0  0  0  0  0  0  0
    3.9229   -0.5505    1.0965 H   0  0  0  0  0  0  0  0  0  0  0  0
    5.1437    0.5052    1.8236 H   0  0  0  0  0  0  0  0  0  0  0  0
    3.1276    1.6923    1.6708 H   0  0  0  0  0  0  0  0  0  0  0  0
    4.3329    2.4709    0.6330 H   0  0  0  0  0  0  0  0  0  0  0  0
    2.0895    2.4092   -0.4399 H   0  0  0  0  0  0  0  0  0  0  0  0
    3.3130    1.6171   -1.4272 H   0  0  0  0  0  0  0  0  0  0  0  0
    1.1877    0.2641   -1.2951 H   0  0  0  0  0  0  0  0  0  0  0  0
    2.4556   -0.6074   -0.3784 H   0  0  0  0  0  0  0  0  0  0  0  0
    0.4860    1.3826    0.8543 H   0  0  0  0  0  0  0  0  0  0  0  0
    1.6800    0.3213    1.7514 H   0  0  0  0  0  0  0  0  0  0  0  0
    0.5708   -1.5841    1.0505 H   0  0  0  0  0  0  0  0  0  0  0  0
   -0.5317   -0.7987   -1.0988 H   0  0  0  0  0  0  0  0  0  0  0  0
   -1.5053    0.2620   -0.0549 H   0  0  0  0  0  0  0  0  0  0  0  0
   -1.1743   -2.7933    0.0679 H   0  0  0  0  0  0  0  0  0  0  0  0
   -2.1424   -1.8542    1.2231 H   0  0  0  0  0  0  0  0  0  0  0  0
   -3.5085   -2.9159   -0.5360 H   0  0  0  0  0  0  0  0  0  0  0  0
   -2.5060   -2.1149   -1.8206 H   0  0  0  0  0  0  0  0  0  0  0  0
   -3.4308    0.0851   -1.2085 H   0  0  0  0  0  0  0  0  0  0  0  0
   -4.6837   -1.1167   -1.5536 H   0  0  0  0  0  0  0  0  0  0  0  0
   -3.7999   -0.3333    1.2374 H   0  0  0  0  0  0  0  0  0  0  0  0
   -5.1366   -1.4890    0.8416 H   0  0  0  0  0  0  0  0  0  0  0  0
   -6.0093    0.7305    1.3802 H   0  0  0  0  0  0  0  0  0  0  0  0
   -6.3258    0.3686   -0.3379 H   0  0  0  0  0  0  0  0  0  0  0  0
   -5.4044    2.4324   -0.5248 H   0  0  0  0  0  0  0  0  0  0  0  0
   -4.4622    2.3090    0.8623 H   0  0  0  0  0  0  0  0  0  0  0  0
  1  2  1  0
  2  3  1  0
  3  4  1  0
  4  5  1  0
  5  6  1  0
  6  7  1  0
  7  8  1  0
  8  9  1  0
  9 10  1  0
 10 11  1  0
 11 12  1  0
 12 13  1  0
 13 14  1  0
 14 15  1  0
  1 16  1  0
  1 17  1  0
  2 18  1  0
  2 19  1  0
  3 20  1  0
  3 21  1  0
  4 22  1  0
  4 23  1  0
  5 24  1  0
  5 25  1  0
  6 26  1  0
  6 27  1  0
  7 28  1  0
  7 29  1  0
  8 30  1  0
  9 31  1  0
  9 32  1  0
 10 33  1  0
 10 34  1  0
 11 35  1  0
 11 36  1  0
 12 37  1  0
 12 38  1  0
 13 39  1  0
 13 40  1  0
 14 41  1  0
 14 42  1  0
 15 43  1  0
 15 44  1  0
M  END

