46508085
     RDKit          3D

 62 63  0  0  1  0  0  0  0  0999 V2000
   -0.3719   -1.1629   -1.6401 O   0  0  0  0  0  0  0  0  0  0  0  0
   -3.6735   -3.7992    2.8228 O   0  0  0  0  0  0  0  0  0  0  0  0
   -5.5162   -4.6260    1.8073 O   0  0  0  0  0  0  0  0  0  0  0  0
   -1.5822   -0.3957    0.1460 N   0  0  0  0  0  0  0  0  0  0  0  0
   -2.7801   -1.1153   -0.2311 C   0  0  2  0  0  0  0  0  0  0  0  0
   -3.8278   -0.1242   -0.5896 C   0  0  0  0  0  0  0  0  0  0  0  0
   -3.1155   -2.0751    0.8409 C   0  0  0  0  0  0  0  0  0  0  0  0
   -4.1696    0.8109    0.5623 C   0  0  0  0  0  0  0  0  0  0  0  0
    2.5527   -1.2484   -1.0634 C   0  0  0  0  0  0  0  0  0  0  0  0
    2.0272    0.1639   -0.9831 C   0  0  0  0  0  0  0  0  0  0  0  0
    0.8050    0.3124   -0.1552 C   0  0  0  0  0  0  0  0  0  0  0  0
    3.7904   -1.2954   -1.9176 C   0  0  0  0  0  0  0  0  0  0  0  0
   -4.3279   -2.9102    0.6251 C   0  0  0  0  0  0  0  0  0  0  0  0
   -0.3703   -0.4374   -0.5888 C   0  0  0  0  0  0  0  0  0  0  0  0
    4.9077   -0.4435   -1.4020 C   0  0  0  0  0  0  0  0  0  0  0  0
   -5.2204    1.7729    0.1363 C   0  0  0  0  0  0  0  0  0  0  0  0
    5.3712   -0.8272   -0.0216 C   0  0  0  0  0  0  0  0  0  0  0  0
    6.4609    0.0788    0.3630 C   0  0  0  0  0  0  0  0  0  0  0  0
   -4.5565   -3.8261    1.7625 C   0  0  0  0  0  0  0  0  0  0  0  0
   -6.5707    1.5247    0.2751 C   0  0  0  0  0  0  0  0  0  0  0  0
   -4.8692    2.9913   -0.4333 C   0  0  0  0  0  0  0  0  0  0  0  0
    6.1934    1.2521    1.0155 C   0  0  0  0  0  0  0  0  0  0  0  0
    7.7604   -0.2425    0.0715 C   0  0  0  0  0  0  0  0  0  0  0  0
   -7.5313    2.4293   -0.1260 C   0  0  0  0  0  0  0  0  0  0  0  0
   -5.8202    3.9085   -0.8403 C   0  0  0  0  0  0  0  0  0  0  0  0
   -7.1493    3.6247   -0.6854 C   0  0  0  0  0  0  0  0  0  0  0  0
    7.2206    2.1279    1.3897 C   0  0  0  0  0  0  0  0  0  0  0  0
    8.8182    0.5922    0.4208 C   0  0  0  0  0  0  0  0  0  0  0  0
    8.5205    1.7643    1.0754 C   0  0  0  0  0  0  0  0  0  0  0  0
   -4.0069   -3.6659    3.7826 H   0  0  0  0  0  0  0  0  0  0  0  0
   -1.6184    0.1837    1.0066 H   0  0  0  0  0  0  0  0  0  0  0  0
   -2.5163   -1.6656   -1.1764 H   0  0  0  0  0  0  0  0  0  0  0  0
   -4.7440   -0.5767   -1.0381 H   0  0  0  0  0  0  0  0  0  0  0  0
   -3.4091    0.5301   -1.3861 H   0  0  0  0  0  0  0  0  0  0  0  0
   -2.2501   -2.7566    0.9818 H   0  0  0  0  0  0  0  0  0  0  0  0
   -3.2338   -1.5342    1.8116 H   0  0  0  0  0  0  0  0  0  0  0  0
   -4.5577    0.2638    1.4351 H   0  0  0  0  0  0  0  0  0  0  0  0
   -3.2598    1.3982    0.7736 H   0  0  0  0  0  0  0  0  0  0  0  0
    1.8089   -1.8943   -1.5674 H   0  0  0  0  0  0  0  0  0  0  0  0
    2.7186   -1.5960   -0.0343 H   0  0  0  0  0  0  0  0  0  0  0  0
    2.8374    0.7558   -0.4684 H   0  0  0  0  0  0  0  0  0  0  0  0
    1.9439    0.6326   -1.9878 H   0  0  0  0  0  0  0  0  0  0  0  0
    0.5563    1.4123   -0.1471 H   0  0  0  0  0  0  0  0  0  0  0  0
    1.0658    0.0940    0.9131 H   0  0  0  0  0  0  0  0  0  0  0  0
    4.1702   -2.3271   -2.0578 H   0  0  0  0  0  0  0  0  0  0  0  0
    3.5212   -0.9146   -2.9245 H   0  0  0  0  0  0  0  0  0  0  0  0
   -4.1875   -3.5739   -0.2796 H   0  0  0  0  0  0  0  0  0  0  0  0
   -5.2484   -2.3445    0.4284 H   0  0  0  0  0  0  0  0  0  0  0  0
    4.6307    0.6214   -1.4551 H   0  0  0  0  0  0  0  0  0  0  0  0
    5.7723   -0.5827   -2.0836 H   0  0  0  0  0  0  0  0  0  0  0  0
    5.7921   -1.8602   -0.0326 H   0  0  0  0  0  0  0  0  0  0  0  0
    4.5448   -0.8512    0.7158 H   0  0  0  0  0  0  0  0  0  0  0  0
   -6.8686    0.5830    0.7158 H   0  0  0  0  0  0  0  0  0  0  0  0
   -3.8313    3.2768   -0.5838 H   0  0  0  0  0  0  0  0  0  0  0  0
    5.1949    1.5781    1.2818 H   0  0  0  0  0  0  0  0  0  0  0  0
    8.0469   -1.1619   -0.4469 H   0  0  0  0  0  0  0  0  0  0  0  0
   -8.5682    2.1542    0.0198 H   0  0  0  0  0  0  0  0  0  0  0  0
   -5.5569    4.8655   -1.2875 H   0  0  0  0  0  0  0  0  0  0  0  0
   -7.9221    4.3174   -0.9919 H   0  0  0  0  0  0  0  0  0  0  0  0
    7.0028    3.0529    1.9047 H   0  0  0  0  0  0  0  0  0  0  0  0
    9.8436    0.3426    0.1929 H   0  0  0  0  0  0  0  0  0  0  0  0
    9.3528    2.4185    1.3490 H   0  0  0  0  0  0  0  0  0  0  0  0
  1 14  2  0
  2 19  1  0
  3 19  2  0
  5  4  1  0
  4 14  1  0
  5  6  1  0
  5  7  1  0
  6  8  1  0
  7 13  1  0
  8 16  1  0
  9 10  1  0
  9 12  1  0
 10 11  1  0
 11 14  1  0
 12 15  1  0
 13 19  1  0
 15 17  1  0
 16 20  2  0
 16 21  1  0
 17 18  1  0
 18 22  2  0
 18 23  1  0
 20 24  1  0
 21 25  2  0
 22 27  1  0
 23 28  2  0
 24 26  2  0
 25 26  1  0
 27 29  2  0
 28 29  1  0
  2 30  1  0
  4 31  1  0
  5 32  1  6
  6 33  1  0
  6 34  1  0
  7 35  1  0
  7 36  1  0
  8 37  1  0
  8 38  1  0
  9 39  1  0
  9 40  1  0
 10 41  1  0
 10 42  1  0
 11 43  1  0
 11 44  1  0
 12 45  1  0
 12 46  1  0
 13 47  1  0
 13 48  1  0
 15 49  1  0
 15 50  1  0
 17 51  1  0
 17 52  1  0
 20 53  1  0
 21 54  1  0
 22 55  1  0
 23 56  1  0
 24 57  1  0
 25 58  1  0
 26 59  1  0
 27 60  1  0
 28 61  1  0
 29 62  1  0
M  END

