46505801
     RDKit          3D

 17 16  0  0  0  0  0  0  0  0999 V2000
   -1.4888   -1.5510   -0.1413 C   0  0  0  0  0  0  0  0  0  0  0  0
   -0.5404   -0.6966    0.5290 N   0  0  0  0  0  0  0  0  0  0  0  0
   -0.0350    0.4803   -0.0536 C   0  0  0  0  0  0  0  0  0  0  0  0
    1.2552    0.5638   -0.3048 C   0  0  0  0  0  0  0  0  0  0  0  0
    2.1658   -0.5538    0.0157 C   0  0  0  0  0  0  0  0  0  0  0  0
   -0.9562    1.5588   -0.3558 C   0  0  0  0  0  0  0  0  0  0  0  0
   -0.5178    2.7478   -0.9323 O   0  0  0  0  0  0  0  0  0  0  0  0
   -2.1858    1.4307   -0.0958 O   0  0  0  0  0  0  0  0  0  0  0  0
   -2.3801   -1.7778    0.4773 H   0  0  0  0  0  0  0  0  0  0  0  0
   -0.9637   -2.4936   -0.4421 H   0  0  0  0  0  0  0  0  0  0  0  0
   -1.8541   -1.0826   -1.0672 H   0  0  0  0  0  0  0  0  0  0  0  0
   -0.2186   -0.9604    1.4774 H   0  0  0  0  0  0  0  0  0  0  0  0
    1.6375    1.4694   -0.7520 H   0  0  0  0  0  0  0  0  0  0  0  0
    2.1652   -0.8096    1.0980 H   0  0  0  0  0  0  0  0  0  0  0  0
    3.2167   -0.3029   -0.2363 H   0  0  0  0  0  0  0  0  0  0  0  0
    1.8715   -1.4155   -0.6143 H   0  0  0  0  0  0  0  0  0  0  0  0
   -1.1715    3.3930   -1.3532 H   0  0  0  0  0  0  0  0  0  0  0  0
  1  2  1  0
  2  3  1  0
  3  4  2  0
  4  5  1  0
  3  6  1  0
  6  7  1  0
  6  8  2  0
  1  9  1  0
  1 10  1  0
  1 11  1  0
  2 12  1  0
  4 13  1  0
  5 14  1  0
  5 15  1  0
  5 16  1  0
  7 17  1  0
M  END

