46505640
     RDKit          3D

 52 54  0  0  1  0  0  0  0  0999 V2000
   -0.8561   -1.9979   -1.0116 C   0  0  0  0  0  0  0  0  0  0  0  0
   -1.0503   -1.8571    0.2850 C   0  0  0  0  0  0  0  0  0  0  0  0
    0.0088   -1.4450    1.1156 C   0  0  0  0  0  0  0  0  0  0  0  0
    1.2542   -1.1820    0.6213 C   0  0  0  0  0  0  0  0  0  0  0  0
    1.4650   -1.3316   -0.7415 C   0  0  0  0  0  0  0  0  0  0  0  0
    0.4247   -1.7328   -1.5443 C   0  0  0  0  0  0  0  0  0  0  0  0
   -2.3240   -2.0634    1.0072 C   0  0  0  0  0  0  0  0  0  0  0  0
   -2.9559   -0.7645    1.3523 C   0  0  0  0  0  0  0  0  0  0  0  0
   -3.5272    0.0994    0.3464 C   0  0  0  0  0  0  0  0  0  0  0  0
   -4.8925    0.5017    0.3420 C   0  0  0  0  0  0  0  0  0  0  0  0
   -5.0725    1.2813   -0.7693 C   0  0  0  0  0  0  0  0  0  0  0  0
   -3.9206    1.3987   -1.4743 N   0  0  0  0  0  0  0  0  0  0  0  0
   -2.9958    0.6879   -0.7978 C   0  0  0  0  0  0  0  0  0  0  0  0
   -5.9539    0.3104    1.2126 C   0  0  0  0  0  0  0  0  0  0  0  0
   -7.1371    0.9056    0.9338 N   0  0  0  0  0  0  0  0  0  0  0  0
   -7.2833    1.6573   -0.1483 C   0  0  0  0  0  0  0  0  0  0  0  0
   -6.2615    1.8614   -1.0237 N   0  0  0  0  0  0  0  0  0  0  0  0
   -8.5412    2.2766   -0.3600 N   0  0  0  0  0  0  0  0  0  0  0  0
    2.7926   -1.0604   -1.2975 C   0  0  0  0  0  0  0  0  0  0  0  0
    3.9413   -1.0472   -0.4601 N   0  0  0  0  0  0  0  0  0  0  0  0
    5.2842   -0.7484   -0.8736 C   0  0  1  0  0  0  0  0  0  0  0  0
    5.8796    0.3670   -0.0405 C   0  0  0  0  0  0  0  0  0  0  0  0
    5.0474    1.6100   -0.2191 C   0  0  0  0  0  0  0  0  0  0  0  0
    5.6778    2.6875    0.6110 C   0  0  0  0  0  0  0  0  0  0  0  0
    5.0757    3.8940    0.8040 O   0  0  0  0  0  0  0  0  0  0  0  0
    2.9156   -0.8276   -2.4958 O   0  0  0  0  0  0  0  0  0  0  0  0
    6.1647   -1.9049   -1.0548 C   0  0  0  0  0  0  0  0  0  0  0  0
    7.4902   -1.6769   -1.3401 O   0  0  0  0  0  0  0  0  0  0  0  0
    5.7532   -3.0751   -0.9554 O   0  0  0  0  0  0  0  0  0  0  0  0
    6.8074    2.4741    1.1518 O   0  0  0  0  0  0  0  0  0  0  0  0
   -5.8345   -0.4090    2.2507 O   0  0  0  0  0  0  0  0  0  0  0  0
   -1.6584   -2.3108   -1.7035 H   0  0  0  0  0  0  0  0  0  0  0  0
   -0.1423   -1.3221    2.1741 H   0  0  0  0  0  0  0  0  0  0  0  0
    2.0813   -0.8611    1.2235 H   0  0  0  0  0  0  0  0  0  0  0  0
    0.5258   -1.8707   -2.6250 H   0  0  0  0  0  0  0  0  0  0  0  0
   -2.0688   -2.6835    1.9233 H   0  0  0  0  0  0  0  0  0  0  0  0
   -3.0037   -2.7372    0.4355 H   0  0  0  0  0  0  0  0  0  0  0  0
   -2.2815   -0.1465    2.0679 H   0  0  0  0  0  0  0  0  0  0  0  0
   -3.7960   -1.0627    2.0782 H   0  0  0  0  0  0  0  0  0  0  0  0
   -3.7646    1.9315   -2.3727 H   0  0  0  0  0  0  0  0  0  0  0  0
   -1.9782    0.6174   -1.1229 H   0  0  0  0  0  0  0  0  0  0  0  0
   -6.4373    2.4353   -1.8620 H   0  0  0  0  0  0  0  0  0  0  0  0
   -9.3350    1.7531   -0.7138 H   0  0  0  0  0  0  0  0  0  0  0  0
   -8.5895    3.2909   -0.1467 H   0  0  0  0  0  0  0  0  0  0  0  0
    3.8408   -1.2901    0.5509 H   0  0  0  0  0  0  0  0  0  0  0  0
    5.1738   -0.2999   -1.9067 H   0  0  0  0  0  0  0  0  0  0  0  0
    5.9612    0.0463    1.0469 H   0  0  0  0  0  0  0  0  0  0  0  0
    6.9155    0.5296   -0.3916 H   0  0  0  0  0  0  0  0  0  0  0  0
    3.9844    1.4706    0.0663 H   0  0  0  0  0  0  0  0  0  0  0  0
    5.0777    1.8779   -1.2937 H   0  0  0  0  0  0  0  0  0  0  0  0
    4.0698    4.0992    0.7165 H   0  0  0  0  0  0  0  0  0  0  0  0
    8.0489   -2.3559   -1.9005 H   0  0  0  0  0  0  0  0  0  0  0  0
  1  2  2  0
  2  3  1  0
  3  4  2  0
  4  5  1  0
  5  6  2  0
  1  6  1  0
  2  7  1  0
  7  8  1  0
  8  9  1  0
  9 10  1  0
 10 11  2  0
 11 12  1  0
 12 13  1  0
  9 13  2  0
 10 14  1  0
 14 15  1  0
 15 16  2  0
 16 17  1  0
 11 17  1  0
 16 18  1  0
  5 19  1  0
 19 20  1  0
 20 21  1  0
 21 22  1  0
 22 23  1  0
 23 24  1  0
 24 25  1  0
 19 26  2  0
 21 27  1  0
 27 28  1  0
 27 29  2  0
 24 30  2  0
 14 31  2  0
  1 32  1  0
  3 33  1  0
  4 34  1  0
  6 35  1  0
  7 36  1  0
  7 37  1  0
  8 38  1  0
  8 39  1  0
 12 40  1  0
 13 41  1  0
 17 42  1  0
 18 43  1  0
 18 44  1  0
 20 45  1  0
 21 46  1  6
 22 47  1  0
 22 48  1  0
 23 49  1  0
 23 50  1  0
 25 51  1  0
 28 52  1  0
M  END

