46506682
     RDKit          3D

 11 10  0  0  0  0  0  0  0  0999 V2000
    2.0156    0.2215    0.0485 C   0  0  0  0  0  0  0  0  0  0  0  0
    0.6484    0.1561   -0.3981 C   0  0  0  0  0  0  0  0  0  0  0  0
   -0.3255   -0.1395    0.4789 C   0  0  0  0  0  0  0  0  0  0  0  0
   -1.7030   -0.1860   -0.0645 C   0  0  0  0  0  0  0  0  0  0  0  0
    2.3736    0.0143    1.2419 O   0  0  0  0  0  0  0  0  0  0  0  0
    2.7970    0.4592   -0.6575 H   0  0  0  0  0  0  0  0  0  0  0  0
    0.4025    0.3428   -1.4308 H   0  0  0  0  0  0  0  0  0  0  0  0
   -0.0327   -0.3145    1.4815 H   0  0  0  0  0  0  0  0  0  0  0  0
   -2.4163   -0.6531    0.6508 H   0  0  0  0  0  0  0  0  0  0  0  0
   -1.7468   -0.7499   -1.0416 H   0  0  0  0  0  0  0  0  0  0  0  0
   -2.0128    0.8490   -0.3090 H   0  0  0  0  0  0  0  0  0  0  0  0
  1  5  2  0
  1  2  1  0
  2  3  2  0
  3  4  1  0
  1  6  1  0
  2  7  1  0
  3  8  1  0
  4  9  1  0
  4 10  1  0
  4 11  1  0
M  END

