46506235
     RDKit          3D

 57 59  0  0  1  0  0  0  0  0999 V2000
    7.5759   -1.1366   -1.2976 O   0  0  0  0  0  0  0  0  0  0  0  0
    4.6151    0.6653   -2.6708 O   0  0  0  0  0  0  0  0  0  0  0  0
   -4.2480    1.3292   -1.7604 O   0  0  0  0  0  0  0  0  0  0  0  0
   -5.6495   -1.6124   -3.0111 O   0  0  0  0  0  0  0  0  0  0  0  0
   -7.3690   -0.1657   -2.6806 O   0  0  0  0  0  0  0  0  0  0  0  0
   -8.7503    0.3008    2.1041 O   0  0  0  0  0  0  0  0  0  0  0  0
   -8.9550   -1.6030    0.8556 O   0  0  0  0  0  0  0  0  0  0  0  0
    5.0589   -0.2368   -0.5082 N   0  0  0  0  0  0  0  0  0  0  0  0
    4.8935    0.9944    1.8133 N   0  0  0  0  0  0  0  0  0  0  0  0
    1.4623   -0.5489    0.1932 N   0  0  0  0  0  0  0  0  0  0  0  0
    7.2760    0.7633    2.1633 N   0  0  0  0  0  0  0  0  0  0  0  0
    8.5915   -0.3397    0.5311 N   0  0  0  0  0  0  0  0  0  0  0  0
   -4.8134   -0.5931   -0.5358 N   0  0  0  0  0  0  0  0  0  0  0  0
    9.6189    0.4719    2.4797 N   0  0  0  0  0  0  0  0  0  0  0  0
    3.8257   -0.5207    0.1637 C   0  0  1  0  0  0  0  0  0  0  0  0
    3.6811    0.3441    1.4152 C   0  0  0  0  0  0  0  0  0  0  0  0
    2.5809   -0.2077   -0.6488 C   0  0  0  0  0  0  0  0  0  0  0  0
    6.2634   -0.1198    0.1871 C   0  0  0  0  0  0  0  0  0  0  0  0
    6.1761    0.5650    1.4194 C   0  0  0  0  0  0  0  0  0  0  0  0
    7.4787   -0.5344   -0.2016 C   0  0  0  0  0  0  0  0  0  0  0  0
    5.0996   -0.1365   -1.9209 C   0  0  0  0  0  0  0  0  0  0  0  0
    0.0874   -0.2646   -0.1273 C   0  0  0  0  0  0  0  0  0  0  0  0
    8.4507    0.2989    1.7033 C   0  0  0  0  0  0  0  0  0  0  0  0
   -0.5018    0.8799    0.2939 C   0  0  0  0  0  0  0  0  0  0  0  0
   -0.6176   -1.2101   -0.8414 C   0  0  0  0  0  0  0  0  0  0  0  0
   -6.2439   -0.7706   -0.6561 C   0  0  1  0  0  0  0  0  0  0  0  0
   -6.8714    0.6132   -0.3155 C   0  0  0  0  0  0  0  0  0  0  0  0
   -2.5279    0.1803   -0.7203 C   0  0  0  0  0  0  0  0  0  0  0  0
   -1.8196    1.0976   -0.0115 C   0  0  0  0  0  0  0  0  0  0  0  0
   -1.9325   -0.9975   -1.1467 C   0  0  0  0  0  0  0  0  0  0  0  0
   -3.9671    0.3521   -1.0573 C   0  0  0  0  0  0  0  0  0  0  0  0
   -8.3408    0.4789   -0.2896 C   0  0  0  0  0  0  0  0  0  0  0  0
   -6.4470   -0.8495   -2.1698 C   0  0  0  0  0  0  0  0  0  0  0  0
   -8.7062   -0.4001    0.8753 C   0  0  0  0  0  0  0  0  0  0  0  0
   -5.0036   -0.9398   -3.5620 H   0  0  0  0  0  0  0  0  0  0  0  0
   -7.8155    0.4945    2.4938 H   0  0  0  0  0  0  0  0  0  0  0  0
    4.7839    1.8355    2.4374 H   0  0  0  0  0  0  0  0  0  0  0  0
    1.6118   -1.0496    1.1217 H   0  0  0  0  0  0  0  0  0  0  0  0
    7.1417    1.2771    3.0749 H   0  0  0  0  0  0  0  0  0  0  0  0
   -4.3690   -1.3439    0.1033 H   0  0  0  0  0  0  0  0  0  0  0  0
    9.8469   -0.2073    3.2587 H   0  0  0  0  0  0  0  0  0  0  0  0
   10.2797    1.2235    2.2782 H   0  0  0  0  0  0  0  0  0  0  0  0
    3.7484   -1.5994    0.3956 H   0  0  0  0  0  0  0  0  0  0  0  0
    2.9339    1.1559    1.1632 H   0  0  0  0  0  0  0  0  0  0  0  0
    3.2344   -0.2128    2.2053 H   0  0  0  0  0  0  0  0  0  0  0  0
    2.5626   -0.6034   -1.6520 H   0  0  0  0  0  0  0  0  0  0  0  0
    2.5147    0.9348   -0.7555 H   0  0  0  0  0  0  0  0  0  0  0  0
    5.7067   -0.9674   -2.4202 H   0  0  0  0  0  0  0  0  0  0  0  0
    0.0196    1.6545    0.8653 H   0  0  0  0  0  0  0  0  0  0  0  0
   -0.1238   -2.1410   -1.1686 H   0  0  0  0  0  0  0  0  0  0  0  0
   -6.6431   -1.5916   -0.1606 H   0  0  0  0  0  0  0  0  0  0  0  0
   -6.5148    1.2530   -1.1698 H   0  0  0  0  0  0  0  0  0  0  0  0
   -6.4707    0.9836    0.6098 H   0  0  0  0  0  0  0  0  0  0  0  0
   -2.3400    2.0069    0.2942 H   0  0  0  0  0  0  0  0  0  0  0  0
   -2.4691   -1.7677   -1.7150 H   0  0  0  0  0  0  0  0  0  0  0  0
   -8.7991    0.0069   -1.1908 H   0  0  0  0  0  0  0  0  0  0  0  0
   -8.8106    1.4725   -0.1340 H   0  0  0  0  0  0  0  0  0  0  0  0
  1 20  2  0
  2 21  2  0
  3 31  2  0
  4 33  1  0
  5 33  2  0
  6 34  1  0
  7 34  2  0
  8 15  1  0
  8 18  1  0
  8 21  1  0
  9 16  1  0
  9 19  1  0
 10 17  1  0
 10 22  1  0
 11 19  1  0
 11 23  1  0
 12 20  1  0
 12 23  2  0
 26 13  1  0
 13 31  1  0
 14 23  1  0
 15 16  1  0
 15 17  1  0
 18 19  2  0
 18 20  1  0
 22 24  2  0
 22 25  1  0
 24 29  1  0
 25 30  2  0
 26 27  1  0
 26 33  1  0
 27 32  1  0
 28 29  2  0
 28 30  1  0
 28 31  1  0
 32 34  1  0
  4 35  1  0
  6 36  1  0
  9 37  1  0
 10 38  1  0
 11 39  1  0
 13 40  1  0
 14 41  1  0
 14 42  1  0
 15 43  1  1
 16 44  1  0
 16 45  1  0
 17 46  1  0
 17 47  1  0
 21 48  1  0
 24 49  1  0
 25 50  1  0
 26 51  1  1
 27 52  1  0
 27 53  1  0
 29 54  1  0
 30 55  1  0
 32 56  1  0
 32 57  1  0
M  END

