46506898
     RDKit          3D

 77 81  0  0  1  0  0  0  0  0999 V2000
    4.3774   -0.0861    0.4542 O   0  0  0  0  0  0  0  0  0  0  0  0
    5.5829    0.5088    0.9382 C   0  0  1  0  0  0  0  0  0  0  0  0
    5.7409    0.2541    2.4150 C   0  0  0  0  0  0  0  0  0  0  0  0
    4.4365   -0.0249    3.0840 C   0  0  0  0  0  0  0  0  0  0  0  0
    3.1702    0.2416    2.4354 C   0  0  0  0  0  0  0  0  0  0  0  0
    3.1525    0.2037    1.0437 C   0  0  0  0  0  0  0  0  0  0  0  0
    1.9955    0.4373    0.3388 C   0  0  0  0  0  0  0  0  0  0  0  0
    0.7791    0.7250    0.9811 C   0  0  0  0  0  0  0  0  0  0  0  0
    0.8089    0.7605    2.3450 C   0  0  0  0  0  0  0  0  0  0  0  0
    1.9911    0.5223    3.0762 C   0  0  0  0  0  0  0  0  0  0  0  0
    1.9502    0.5777    4.4481 O   0  0  0  0  0  0  0  0  0  0  0  0
    4.3987   -0.5110    4.2527 O   0  0  0  0  0  0  0  0  0  0  0  0
   -0.3367    0.9463    0.1935 O   0  0  0  0  0  0  0  0  0  0  0  0
   -1.6234    1.2309    0.6474 C   0  0  2  0  0  0  0  0  0  0  0  0
   -2.5413    0.2292    0.3285 O   0  0  0  0  0  0  0  0  0  0  0  0
   -3.1942    0.4077   -0.8638 C   0  0  2  0  0  0  0  0  0  0  0  0
   -3.4329   -0.9108   -1.5735 C   0  0  0  0  0  0  0  0  0  0  0  0
   -4.1855   -1.8117   -0.8808 O   0  0  0  0  0  0  0  0  0  0  0  0
   -5.4571   -1.4433   -0.5444 C   0  0  1  0  0  0  0  0  0  0  0  0
   -6.5098   -2.4214   -0.9969 C   0  0  2  0  0  0  0  0  0  0  0  0
   -6.3774   -2.8166   -2.3099 O   0  0  0  0  0  0  0  0  0  0  0  0
   -2.1112    2.5940    0.2538 C   0  0  1  0  0  0  0  0  0  0  0  0
   -2.3281    2.6650   -1.2219 C   0  0  2  0  0  0  0  0  0  0  0  0
   -2.3726    1.2742   -1.7926 C   0  0  2  0  0  0  0  0  0  0  0  0
   -2.9809    1.3861   -3.0486 O   0  0  0  0  0  0  0  0  0  0  0  0
   -5.5152   -1.4278    0.8686 O   0  0  0  0  0  0  0  0  0  0  0  0
   -6.7151   -0.9663    1.3307 C   0  0  1  0  0  0  0  0  0  0  0  0
   -6.4839    0.3288    2.0793 C   0  0  0  0  0  0  0  0  0  0  0  0
   -7.8635   -1.8102   -0.7288 C   0  0  1  0  0  0  0  0  0  0  0  0
   -7.7202   -0.6843    0.2411 C   0  0  1  0  0  0  0  0  0  0  0  0
   -8.9691   -0.5568    0.8937 O   0  0  0  0  0  0  0  0  0  0  0  0
   -1.3639    3.4533   -1.8638 O   0  0  0  0  0  0  0  0  0  0  0  0
   11.1903   -1.6681   -1.5951 C   0  0  0  0  0  0  0  0  0  0  0  0
    9.9368   -1.4092   -2.2453 O   0  0  0  0  0  0  0  0  0  0  0  0
    8.8765   -0.9347   -1.4488 C   0  0  0  0  0  0  0  0  0  0  0  0
    9.0370   -0.7274   -0.1017 C   0  0  0  0  0  0  0  0  0  0  0  0
    7.9838   -0.2556    0.6912 C   0  0  0  0  0  0  0  0  0  0  0  0
    6.7517    0.0177    0.1572 C   0  0  0  0  0  0  0  0  0  0  0  0
    6.6089   -0.2002   -1.2187 C   0  0  0  0  0  0  0  0  0  0  0  0
    7.6454   -0.6655   -2.0055 C   0  0  0  0  0  0  0  0  0  0  0  0
    7.4780   -0.8747   -3.3752 O   0  0  0  0  0  0  0  0  0  0  0  0
   -8.3710   -1.2807   -1.9282 O   0  0  0  0  0  0  0  0  0  0  0  0
   -3.2510    2.9472    0.9792 O   0  0  0  0  0  0  0  0  0  0  0  0
    5.4726    1.6076    0.8003 H   0  0  0  0  0  0  0  0  0  0  0  0
    6.1478    1.1750    2.8785 H   0  0  0  0  0  0  0  0  0  0  0  0
    6.4307   -0.6148    2.5506 H   0  0  0  0  0  0  0  0  0  0  0  0
    2.0054    0.4023   -0.7456 H   0  0  0  0  0  0  0  0  0  0  0  0
   -0.0606    0.9703    2.9141 H   0  0  0  0  0  0  0  0  0  0  0  0
    2.7056    0.4533    5.0427 H   0  0  0  0  0  0  0  0  0  0  0  0
   -1.6340    1.2412    1.7801 H   0  0  0  0  0  0  0  0  0  0  0  0
   -4.1440    0.9426   -0.6610 H   0  0  0  0  0  0  0  0  0  0  0  0
   -3.8269   -0.6965   -2.6028 H   0  0  0  0  0  0  0  0  0  0  0  0
   -2.4276   -1.3678   -1.7335 H   0  0  0  0  0  0  0  0  0  0  0  0
   -5.7538   -0.4406   -0.8692 H   0  0  0  0  0  0  0  0  0  0  0  0
   -6.4221   -3.3212   -0.3545 H   0  0  0  0  0  0  0  0  0  0  0  0
   -5.5145   -3.3274   -2.3808 H   0  0  0  0  0  0  0  0  0  0  0  0
   -1.2961    3.3318    0.4919 H   0  0  0  0  0  0  0  0  0  0  0  0
   -3.3528    3.0936   -1.3898 H   0  0  0  0  0  0  0  0  0  0  0  0
   -1.3643    0.8330   -1.8656 H   0  0  0  0  0  0  0  0  0  0  0  0
   -2.4631    0.8027   -3.6654 H   0  0  0  0  0  0  0  0  0  0  0  0
   -7.1384   -1.6957    2.0734 H   0  0  0  0  0  0  0  0  0  0  0  0
   -7.4212    0.9086    2.2122 H   0  0  0  0  0  0  0  0  0  0  0  0
   -6.0367    0.0429    3.0570 H   0  0  0  0  0  0  0  0  0  0  0  0
   -5.7155    0.9000    1.5310 H   0  0  0  0  0  0  0  0  0  0  0  0
   -8.6072   -2.5709   -0.4086 H   0  0  0  0  0  0  0  0  0  0  0  0
   -7.5297    0.2959   -0.2047 H   0  0  0  0  0  0  0  0  0  0  0  0
   -9.5846   -0.0831    0.2609 H   0  0  0  0  0  0  0  0  0  0  0  0
   -1.7906    4.3107   -2.0895 H   0  0  0  0  0  0  0  0  0  0  0  0
   11.0763   -2.4386   -0.8102 H   0  0  0  0  0  0  0  0  0  0  0  0
   11.9423   -2.0123   -2.3251 H   0  0  0  0  0  0  0  0  0  0  0  0
   11.5186   -0.7377   -1.0501 H   0  0  0  0  0  0  0  0  0  0  0  0
    9.9953   -0.9333    0.3522 H   0  0  0  0  0  0  0  0  0  0  0  0
    8.1452   -0.0927    1.7537 H   0  0  0  0  0  0  0  0  0  0  0  0
    5.6293    0.0121   -1.6719 H   0  0  0  0  0  0  0  0  0  0  0  0
    8.2543   -1.2129   -3.9071 H   0  0  0  0  0  0  0  0  0  0  0  0
   -8.2204   -1.9327   -2.6809 H   0  0  0  0  0  0  0  0  0  0  0  0
   -3.2073    3.9309    1.1155 H   0  0  0  0  0  0  0  0  0  0  0  0
  1  2  1  0
  1  6  1  0
  2  3  1  0
  2 38  1  0
  3  4  1  0
  4  5  1  0
  4 12  2  0
  5  6  2  0
  5 10  1  0
  6  7  1  0
  7  8  2  0
  8  9  1  0
  8 13  1  0
  9 10  2  0
 10 11  1  0
 14 15  1  0
 14 22  1  0
 15 16  1  0
 16 17  1  0
 16 24  1  0
 17 18  1  0
 19 20  1  0
 19 26  1  0
 20 21  1  0
 20 29  1  0
 22 23  1  0
 23 24  1  0
 23 32  1  0
 24 25  1  0
 26 27  1  0
 27 28  1  0
 27 30  1  0
 29 30  1  0
 30 31  1  0
 33 34  1  0
 34 35  1  0
 35 36  2  0
 35 40  1  0
 36 37  1  0
 37 38  2  0
 38 39  1  0
 39 40  2  0
 40 41  1  0
 29 42  1  0
 19 18  1  0
 22 43  1  0
 14 13  1  0
  2 44  1  1
  3 45  1  0
  3 46  1  0
  7 47  1  0
  9 48  1  0
 11 49  1  0
 14 50  1  1
 16 51  1  1
 17 52  1  0
 17 53  1  0
 19 54  1  6
 20 55  1  1
 21 56  1  0
 22 57  1  1
 23 58  1  1
 24 59  1  6
 25 60  1  0
 27 61  1  1
 28 62  1  0
 28 63  1  0
 28 64  1  0
 29 65  1  1
 30 66  1  6
 31 67  1  0
 32 68  1  0
 33 69  1  0
 33 70  1  0
 33 71  1  0
 36 72  1  0
 37 73  1  0
 39 74  1  0
 41 75  1  0
 42 76  1  0
 43 77  1  0
M  END

