46507922
     RDKit          3D

 45 46  0  0  1  0  0  0  0  0999 V2000
    1.1548   -0.4792    1.0653 O   0  0  0  0  0  0  0  0  0  0  0  0
    2.2180    1.4798    1.1711 O   0  0  0  0  0  0  0  0  0  0  0  0
   -2.1859    0.6128   -0.8537 N   0  0  0  0  0  0  0  0  0  0  0  0
    0.0603   -0.0622    0.3225 C   0  0  1  0  0  0  0  0  0  0  0  0
   -0.8515   -1.2426    0.0574 C   0  0  2  0  0  0  0  0  0  0  0  0
   -0.7969    0.9274    1.1520 C   0  0  0  0  0  0  0  0  0  0  0  0
   -1.9640   -0.8126   -0.8573 C   0  0  0  0  0  0  0  0  0  0  0  0
   -2.0673    1.2186    0.4471 C   0  0  0  0  0  0  0  0  0  0  0  0
   -1.4501   -1.8605    1.2835 C   0  0  0  0  0  0  0  0  0  0  0  0
    0.3461    0.5728   -0.9727 C   0  0  0  0  0  0  0  0  0  0  0  0
   -3.5519    0.8293   -1.2883 C   0  0  0  0  0  0  0  0  0  0  0  0
   -0.4304   -2.3933    2.2686 C   0  0  0  0  0  0  0  0  0  0  0  0
    0.3177    1.9437   -1.1838 C   0  0  0  0  0  0  0  0  0  0  0  0
    0.6435   -0.1889   -2.1001 C   0  0  0  0  0  0  0  0  0  0  0  0
    2.2334    0.2729    1.4973 C   0  0  0  0  0  0  0  0  0  0  0  0
    0.5643    2.5106   -2.4205 C   0  0  0  0  0  0  0  0  0  0  0  0
    0.8969    0.3481   -3.3447 C   0  0  0  0  0  0  0  0  0  0  0  0
    3.3538   -0.2443    2.2908 C   0  0  0  0  0  0  0  0  0  0  0  0
    0.8554    1.7278   -3.5113 C   0  0  0  0  0  0  0  0  0  0  0  0
    4.4013   -0.7799    1.3133 C   0  0  0  0  0  0  0  0  0  0  0  0
   -0.2855   -2.0588   -0.4382 H   0  0  0  0  0  0  0  0  0  0  0  0
   -1.0722    0.3923    2.1152 H   0  0  0  0  0  0  0  0  0  0  0  0
   -0.2057    1.7918    1.4848 H   0  0  0  0  0  0  0  0  0  0  0  0
   -1.7310   -1.0964   -1.9132 H   0  0  0  0  0  0  0  0  0  0  0  0
   -2.8982   -1.3330   -0.6059 H   0  0  0  0  0  0  0  0  0  0  0  0
   -2.9881    0.9222    1.0422 H   0  0  0  0  0  0  0  0  0  0  0  0
   -2.1579    2.3142    0.3175 H   0  0  0  0  0  0  0  0  0  0  0  0
   -1.9873   -2.7612    0.9251 H   0  0  0  0  0  0  0  0  0  0  0  0
   -2.1788   -1.2549    1.8149 H   0  0  0  0  0  0  0  0  0  0  0  0
   -4.0619    1.6632   -0.7545 H   0  0  0  0  0  0  0  0  0  0  0  0
   -4.1886   -0.0678   -1.0401 H   0  0  0  0  0  0  0  0  0  0  0  0
   -3.6302    1.0642   -2.3538 H   0  0  0  0  0  0  0  0  0  0  0  0
   -0.9612   -3.1901    2.8191 H   0  0  0  0  0  0  0  0  0  0  0  0
    0.4174   -2.8528    1.7830 H   0  0  0  0  0  0  0  0  0  0  0  0
   -0.1655   -1.6311    3.0304 H   0  0  0  0  0  0  0  0  0  0  0  0
    0.0974    2.5954   -0.3715 H   0  0  0  0  0  0  0  0  0  0  0  0
    0.6670   -1.2627   -2.0375 H   0  0  0  0  0  0  0  0  0  0  0  0
    0.5330    3.6027   -2.5403 H   0  0  0  0  0  0  0  0  0  0  0  0
    1.1311   -0.2942   -4.1997 H   0  0  0  0  0  0  0  0  0  0  0  0
    3.8445    0.5969    2.8208 H   0  0  0  0  0  0  0  0  0  0  0  0
    3.0719   -1.0010    3.0609 H   0  0  0  0  0  0  0  0  0  0  0  0
    1.0650    2.1932   -4.4619 H   0  0  0  0  0  0  0  0  0  0  0  0
    4.9903    0.0446    0.8852 H   0  0  0  0  0  0  0  0  0  0  0  0
    3.8565   -1.2541    0.4761 H   0  0  0  0  0  0  0  0  0  0  0  0
    5.0905   -1.5025    1.8047 H   0  0  0  0  0  0  0  0  0  0  0  0
  4  1  1  1
  1 15  1  0
  2 15  2  0
  3  7  1  0
  3  8  1  0
  3 11  1  0
  4  5  1  0
  4  6  1  0
  4 10  1  0
  5  7  1  0
  5  9  1  0
  6  8  1  0
  9 12  1  0
 10 13  2  0
 10 14  1  0
 13 16  1  0
 14 17  2  0
 15 18  1  0
 16 19  2  0
 17 19  1  0
 18 20  1  0
  5 21  1  6
  6 22  1  0
  6 23  1  0
  7 24  1  0
  7 25  1  0
  8 26  1  0
  8 27  1  0
  9 28  1  0
  9 29  1  0
 11 30  1  0
 11 31  1  0
 11 32  1  0
 12 33  1  0
 12 34  1  0
 12 35  1  0
 13 36  1  0
 14 37  1  0
 16 38  1  0
 17 39  1  0
 18 40  1  0
 18 41  1  0
 19 42  1  0
 20 43  1  0
 20 44  1  0
 20 45  1  0
M  END

