46508652
     RDKit          3D

  7  6  0  0  0  0  0  0  0  0999 V2000
   -0.9811   -0.2481   -0.0666 N   0  0  0  0  0  0  0  0  0  0  0  0
    0.2212    0.4776    0.0836 C   0  0  0  0  0  0  0  0  0  0  0  0
    1.3856   -0.0386   -0.4359 O   0  0  0  0  0  0  0  0  0  0  0  0
    0.2412    1.5861    0.6841 O   0  0  0  0  0  0  0  0  0  0  0  0
   -1.0964   -1.1262    0.4610 H   0  0  0  0  0  0  0  0  0  0  0  0
   -1.7128    0.1086   -0.6932 H   0  0  0  0  0  0  0  0  0  0  0  0
    1.9422   -0.7595   -0.0330 H   0  0  0  0  0  0  0  0  0  0  0  0
  1  2  1  0
  2  3  1  0
  2  4  2  0
  1  5  1  0
  1  6  1  0
  3  7  1  0
M  END

