46507656
     RDKit          3D

 97102  0  0  1  0  0  0  0  0999 V2000
   -2.0654   -0.9512    0.4578 C   0  0  1  0  0  0  0  0  0  0  0  0
   -1.6836    0.0764   -0.5983 C   0  0  2  0  0  0  0  0  0  0  0  0
   -3.4256   -1.3450   -0.1376 C   0  0  2  0  0  0  0  0  0  0  0  0
   -1.0545   -2.0436    0.3925 C   0  0  0  0  0  0  0  0  0  0  0  0
   -2.1419   -0.4164    1.8315 C   0  0  0  0  0  0  0  0  0  0  0  0
   -0.3574    0.7058   -0.4053 C   0  0  1  0  0  0  0  0  0  0  0  0
   -2.8788    1.0154   -0.3728 C   0  0  0  0  0  0  0  0  0  0  0  0
   -3.9863   -0.0485   -0.5744 C   0  0  2  0  0  0  0  0  0  0  0  0
   -4.1744   -2.1595    0.6750 O   0  0  0  0  0  0  0  0  0  0  0  0
    0.2780   -1.3899    0.8175 C   0  0  0  0  0  0  0  0  0  0  0  0
    0.6428   -0.4448   -0.2641 C   0  0  2  0  0  0  0  0  0  0  0  0
   -0.0216    1.4636   -1.6533 C   0  0  0  0  0  0  0  0  0  0  0  0
   -5.2542    0.3787   -0.1396 N   0  0  0  0  0  4  0  0  0  0  0  0
   -4.4388   -3.5139    0.4293 C   0  0  0  0  0  0  0  0  0  0  0  0
    2.0324    0.0987   -0.2645 C   0  0  2  0  0  0  0  0  0  0  0  0
    1.4085    1.7129   -1.9280 C   0  0  0  0  0  0  0  0  0  0  0  0
   -6.1530    0.5300   -1.2914 C   0  0  0  0  0  0  0  0  0  0  0  0
   -5.1935    1.7123    0.4617 C   0  0  0  0  0  0  0  0  0  0  0  0
   -5.9515   -0.4389    0.8070 C   0  0  0  0  0  0  0  0  0  0  0  0
   -5.2642   -4.3318    1.3639 C   0  0  0  0  0  0  0  0  0  0  0  0
   -3.9413   -3.9959   -0.6203 O   0  0  0  0  0  0  0  0  0  0  0  0
    2.3139    0.5001   -1.6953 C   0  0  1  0  0  0  0  0  0  0  0  0
    3.0336   -0.9548    0.1178 C   0  0  0  0  0  0  0  0  0  0  0  0
    2.2515    1.3053    0.5856 C   0  0  0  0  0  0  0  0  0  0  0  0
   -7.5578    0.8378   -0.9439 C   0  0  0  0  0  0  0  0  0  0  0  0
   -6.5114    2.3029    0.8071 C   0  0  0  0  0  0  0  0  0  0  0  0
    3.6991    0.7340   -2.0788 C   0  0  0  0  0  0  0  0  0  0  0  0
    4.4503   -0.4298    0.0423 C   0  0  1  0  0  0  0  0  0  0  0  0
   -7.6027    2.1203   -0.1742 C   0  0  0  0  0  0  0  0  0  0  0  0
    4.8029    0.0936   -1.3149 C   0  0  1  0  0  0  0  0  0  0  0  0
    4.8149    0.3907    1.1498 N   0  0  0  0  0  0  0  0  0  0  0  0
    5.4317   -0.9176   -2.1019 O   0  0  0  0  0  0  0  0  0  0  0  0
    4.8032   -0.3271    2.3727 C   0  0  0  0  0  0  0  0  0  0  0  0
    5.9635    1.1943    0.9631 C   0  0  0  0  0  0  0  0  0  0  0  0
    6.7260   -0.8412   -2.5735 C   0  0  0  0  0  0  0  0  0  0  0  0
    5.1442    0.5271    3.5808 C   0  0  0  0  0  0  0  0  0  0  0  0
    6.6251    1.7543    2.1585 C   0  0  0  0  0  0  0  0  0  0  0  0
    7.4131   -1.8547   -3.3845 C   0  0  0  0  0  0  0  0  0  0  0  0
    7.3654    0.2004   -2.2722 O   0  0  0  0  0  0  0  0  0  0  0  0
    6.6260    0.8712    3.3719 C   0  0  0  0  0  0  0  0  0  0  0  0
   -1.7903   -0.4311   -1.5836 H   0  0  0  0  0  0  0  0  0  0  0  0
   -3.1003   -2.0069   -1.0073 H   0  0  0  0  0  0  0  0  0  0  0  0
   -0.8976   -2.3410   -0.6674 H   0  0  0  0  0  0  0  0  0  0  0  0
   -1.2805   -2.9304    0.9991 H   0  0  0  0  0  0  0  0  0  0  0  0
   -1.4495    0.4262    2.0316 H   0  0  0  0  0  0  0  0  0  0  0  0
   -3.1260   -0.1173    2.1922 H   0  0  0  0  0  0  0  0  0  0  0  0
   -1.8037   -1.2318    2.5406 H   0  0  0  0  0  0  0  0  0  0  0  0
   -0.4051    1.3286    0.5084 H   0  0  0  0  0  0  0  0  0  0  0  0
   -2.9221    1.7985   -1.1270 H   0  0  0  0  0  0  0  0  0  0  0  0
   -2.8062    1.3446    0.6574 H   0  0  0  0  0  0  0  0  0  0  0  0
   -3.9971   -0.0940   -1.7143 H   0  0  0  0  0  0  0  0  0  0  0  0
    0.1634   -0.9148    1.8065 H   0  0  0  0  0  0  0  0  0  0  0  0
    0.9969   -2.2322    0.7982 H   0  0  0  0  0  0  0  0  0  0  0  0
    0.5189   -1.0279   -1.2296 H   0  0  0  0  0  0  0  0  0  0  0  0
   -0.5223    0.9812   -2.5224 H   0  0  0  0  0  0  0  0  0  0  0  0
   -0.5208    2.4691   -1.5589 H   0  0  0  0  0  0  0  0  0  0  0  0
    1.5081    1.9144   -3.0365 H   0  0  0  0  0  0  0  0  0  0  0  0
    1.8299    2.6217   -1.4464 H   0  0  0  0  0  0  0  0  0  0  0  0
   -6.0305   -0.3200   -1.9942 H   0  0  0  0  0  0  0  0  0  0  0  0
   -5.7429    1.4220   -1.8456 H   0  0  0  0  0  0  0  0  0  0  0  0
   -4.6219    2.4243   -0.1955 H   0  0  0  0  0  0  0  0  0  0  0  0
   -4.6691    1.5531    1.4447 H   0  0  0  0  0  0  0  0  0  0  0  0
   -6.8814    0.1482    1.0914 H   0  0  0  0  0  0  0  0  0  0  0  0
   -5.4419   -0.5617    1.7838 H   0  0  0  0  0  0  0  0  0  0  0  0
   -6.3691   -1.3728    0.3858 H   0  0  0  0  0  0  0  0  0  0  0  0
   -6.3478   -4.0310    1.2581 H   0  0  0  0  0  0  0  0  0  0  0  0
   -4.9237   -4.2884    2.4010 H   0  0  0  0  0  0  0  0  0  0  0  0
   -5.2306   -5.3807    1.0141 H   0  0  0  0  0  0  0  0  0  0  0  0
    1.8639   -0.3042   -2.3422 H   0  0  0  0  0  0  0  0  0  0  0  0
    2.8805   -1.8146   -0.5752 H   0  0  0  0  0  0  0  0  0  0  0  0
    2.7819   -1.3147    1.1059 H   0  0  0  0  0  0  0  0  0  0  0  0
    1.4735    2.0884    0.4870 H   0  0  0  0  0  0  0  0  0  0  0  0
    3.1823    1.8096    0.1900 H   0  0  0  0  0  0  0  0  0  0  0  0
    2.3622    1.0459    1.6381 H   0  0  0  0  0  0  0  0  0  0  0  0
   -8.0730    1.0492   -1.9305 H   0  0  0  0  0  0  0  0  0  0  0  0
   -8.1319    0.0140   -0.5068 H   0  0  0  0  0  0  0  0  0  0  0  0
   -6.3378    3.4203    0.8959 H   0  0  0  0  0  0  0  0  0  0  0  0
   -6.8695    2.0352    1.8471 H   0  0  0  0  0  0  0  0  0  0  0  0
    3.8380    1.8606   -2.1429 H   0  0  0  0  0  0  0  0  0  0  0  0
    3.8249    0.4368   -3.1664 H   0  0  0  0  0  0  0  0  0  0  0  0
    5.0779   -1.3722    0.1756 H   0  0  0  0  0  0  0  0  0  0  0  0
   -8.5849    2.1202    0.3848 H   0  0  0  0  0  0  0  0  0  0  0  0
   -7.6766    2.9915   -0.8631 H   0  0  0  0  0  0  0  0  0  0  0  0
    5.6059    0.8586   -1.2230 H   0  0  0  0  0  0  0  0  0  0  0  0
    5.6399   -1.0874    2.3160 H   0  0  0  0  0  0  0  0  0  0  0  0
    3.9208   -0.8791    2.6477 H   0  0  0  0  0  0  0  0  0  0  0  0
    6.7660    0.6222    0.4063 H   0  0  0  0  0  0  0  0  0  0  0  0
    5.6376    2.1013    0.3672 H   0  0  0  0  0  0  0  0  0  0  0  0
    4.9936   -0.0689    4.4875 H   0  0  0  0  0  0  0  0  0  0  0  0
    4.6113    1.4998    3.5731 H   0  0  0  0  0  0  0  0  0  0  0  0
    7.6862    2.0135    1.9127 H   0  0  0  0  0  0  0  0  0  0  0  0
    6.1786    2.7382    2.4864 H   0  0  0  0  0  0  0  0  0  0  0  0
    8.5165   -1.8841   -3.1485 H   0  0  0  0  0  0  0  0  0  0  0  0
    7.0335   -2.8671   -3.0828 H   0  0  0  0  0  0  0  0  0  0  0  0
    7.2622   -1.7523   -4.4691 H   0  0  0  0  0  0  0  0  0  0  0  0
    7.0381    1.4364    4.2086 H   0  0  0  0  0  0  0  0  0  0  0  0
    7.1936   -0.0680    3.2372 H   0  0  0  0  0  0  0  0  0  0  0  0
  1  2  1  0
  1  3  1  0
  1  4  1  0
  1  5  1  1
  2  6  1  0
  2  7  1  0
  3  8  1  0
  3  9  1  0
  4 10  1  0
  6 11  1  0
  6 12  1  0
  8 13  1  0
  9 14  1  0
 11 15  1  0
 12 16  1  0
 13 17  1  0
 13 18  1  0
 13 19  1  0
 14 20  1  0
 14 21  2  0
 15 22  1  0
 15 23  1  0
 15 24  1  1
 17 25  1  0
 18 26  1  0
 22 27  1  0
 23 28  1  0
 25 29  1  0
 27 30  1  0
 28 31  1  0
 30 32  1  0
 31 33  1  0
 31 34  1  0
 32 35  1  0
 33 36  1  0
 34 37  1  0
 35 38  1  0
 35 39  2  0
 36 40  1  0
  7  8  1  0
 10 11  1  0
 16 22  1  0
 26 29  1  0
 28 30  1  0
 37 40  1  0
  2 41  1  6
  3 42  1  6
  4 43  1  0
  4 44  1  0
  5 45  1  0
  5 46  1  0
  5 47  1  0
  6 48  1  1
  7 49  1  0
  7 50  1  0
  8 51  1  6
 10 52  1  0
 10 53  1  0
 11 54  1  6
 12 55  1  0
 12 56  1  0
 16 57  1  0
 16 58  1  0
 17 59  1  0
 17 60  1  0
 18 61  1  0
 18 62  1  0
 19 63  1  0
 19 64  1  0
 19 65  1  0
 20 66  1  0
 20 67  1  0
 20 68  1  0
 22 69  1  6
 23 70  1  0
 23 71  1  0
 24 72  1  0
 24 73  1  0
 24 74  1  0
 25 75  1  0
 25 76  1  0
 26 77  1  0
 26 78  1  0
 27 79  1  0
 27 80  1  0
 28 81  1  1
 29 82  1  0
 29 83  1  0
 30 84  1  1
 33 85  1  0
 33 86  1  0
 34 87  1  0
 34 88  1  0
 36 89  1  0
 36 90  1  0
 37 91  1  0
 37 92  1  0
 38 93  1  0
 38 94  1  0
 38 95  1  0
 40 96  1  0
 40 97  1  0
M  CHG  1  13   1
M  END

