46505871
     RDKit          3D

 81 87  0  0  1  0  0  0  0  0999 V2000
    0.7482   -1.6738    0.1983 C   0  0  0  0  0  0  0  0  0  0  0  0
   -0.0122   -2.6304    0.8342 C   0  0  0  0  0  0  0  0  0  0  0  0
   -1.3882   -2.5410    0.8734 C   0  0  0  0  0  0  0  0  0  0  0  0
   -2.0612   -1.4799    0.2715 C   0  0  0  0  0  0  0  0  0  0  0  0
   -1.2986   -0.5037   -0.3765 C   0  0  0  0  0  0  0  0  0  0  0  0
    0.0824   -0.6289   -0.3944 C   0  0  0  0  0  0  0  0  0  0  0  0
   -3.4035   -1.3943    0.3089 N   0  0  0  0  0  0  0  0  0  0  0  0
   -4.0336   -0.3581   -0.2826 C   0  0  0  0  0  0  0  0  0  0  0  0
   -3.3009    0.6158   -0.9272 C   0  0  0  0  0  0  0  0  0  0  0  0
   -1.9172    0.5615   -0.9863 C   0  0  0  0  0  0  0  0  0  0  0  0
    2.1338   -1.7245    0.1351 O   0  0  0  0  0  0  0  0  0  0  0  0
    2.8908   -1.1065    1.1210 C   0  0  0  0  0  0  0  0  0  0  0  0
    2.2393   -0.5183    2.0412 O   0  0  0  0  0  0  0  0  0  0  0  0
    4.2823   -1.0928    1.1613 N   0  0  0  0  0  0  0  0  0  0  0  0
    5.0560   -1.7474    0.1392 C   0  0  0  0  0  0  0  0  0  0  0  0
    5.8937   -0.6910   -0.5450 C   0  0  0  0  0  0  0  0  0  0  0  0
    6.5297    0.2407    0.4241 C   0  0  0  0  0  0  0  0  0  0  0  0
    6.4598   -0.2497    1.8779 C   0  0  0  0  0  0  0  0  0  0  0  0
    4.9885   -0.4248    2.2252 C   0  0  0  0  0  0  0  0  0  0  0  0
    7.8233    0.6702    0.0595 N   0  0  0  0  0  0  0  0  0  0  0  0
    8.8691   -0.2433   -0.0647 C   0  0  0  0  0  0  0  0  0  0  0  0
   10.2365    0.2222    0.3382 C   0  0  0  0  0  0  0  0  0  0  0  0
   10.5226    1.6370   -0.1066 C   0  0  0  0  0  0  0  0  0  0  0  0
    9.4328    2.5084    0.4473 C   0  0  0  0  0  0  0  0  0  0  0  0
    8.0718    2.0472    0.0600 C   0  0  0  0  0  0  0  0  0  0  0  0
   -5.4442    0.0082   -0.4120 C   0  0  0  0  0  0  0  0  0  0  0  0
   -5.5165    1.1553   -1.1081 N   0  0  0  0  0  0  0  0  0  0  0  0
   -4.1998    1.6278   -1.4864 C   0  0  0  0  0  0  0  0  0  0  0  0
   -6.7637    1.6575   -1.3303 C   0  0  0  0  0  0  0  0  0  0  0  0
   -7.9028    1.0451   -0.8788 C   0  0  0  0  0  0  0  0  0  0  0  0
   -7.8467   -0.1168   -0.1724 C   0  0  0  0  0  0  0  0  0  0  0  0
   -6.5741   -0.6495    0.0667 C   0  0  0  0  0  0  0  0  0  0  0  0
   -9.0571   -0.7774    0.3126 C   0  0  2  0  0  0  0  0  0  0  0  0
  -10.2201    0.1006    0.4021 C   0  0  0  0  0  0  0  0  0  0  0  0
  -10.1980    1.3309   -0.2385 O   0  0  0  0  0  0  0  0  0  0  0  0
   -9.1984    1.6765   -1.1780 C   0  0  0  0  0  0  0  0  0  0  0  0
   -6.8142    2.7438   -1.9905 O   0  0  0  0  0  0  0  0  0  0  0  0
  -11.2573   -0.2007    1.0371 O   0  0  0  0  0  0  0  0  0  0  0  0
   -1.1369    1.5949   -1.6597 C   0  0  0  0  0  0  0  0  0  0  0  0
   -0.5782    1.1682   -2.9880 C   0  0  0  0  0  0  0  0  0  0  0  0
   -8.8528   -1.4232    1.6904 C   0  0  0  0  0  0  0  0  0  0  0  0
   -9.3826   -1.8217   -0.5695 O   0  0  0  0  0  0  0  0  0  0  0  0
  -10.1196   -2.0975    2.1656 C   0  0  0  0  0  0  0  0  0  0  0  0
    0.5022   -3.4623    1.3075 H   0  0  0  0  0  0  0  0  0  0  0  0
   -1.9759   -3.3079    1.3817 H   0  0  0  0  0  0  0  0  0  0  0  0
    0.6531    0.1316   -0.9020 H   0  0  0  0  0  0  0  0  0  0  0  0
    5.6800   -2.5119    0.6471 H   0  0  0  0  0  0  0  0  0  0  0  0
    4.3752   -2.2176   -0.6069 H   0  0  0  0  0  0  0  0  0  0  0  0
    5.1732   -0.1520   -1.2321 H   0  0  0  0  0  0  0  0  0  0  0  0
    6.6267   -1.1497   -1.2580 H   0  0  0  0  0  0  0  0  0  0  0  0
    5.8820    1.1714    0.4426 H   0  0  0  0  0  0  0  0  0  0  0  0
    7.0359   -1.1563    2.0442 H   0  0  0  0  0  0  0  0  0  0  0  0
    6.8273    0.5917    2.5062 H   0  0  0  0  0  0  0  0  0  0  0  0
    4.9548   -1.0565    3.1553 H   0  0  0  0  0  0  0  0  0  0  0  0
    4.5714    0.5735    2.4308 H   0  0  0  0  0  0  0  0  0  0  0  0
    8.6765   -1.1893    0.4749 H   0  0  0  0  0  0  0  0  0  0  0  0
    8.9511   -0.5501   -1.1507 H   0  0  0  0  0  0  0  0  0  0  0  0
   10.9754   -0.4296   -0.1734 H   0  0  0  0  0  0  0  0  0  0  0  0
   10.4368    0.0965    1.4331 H   0  0  0  0  0  0  0  0  0  0  0  0
   11.4731    1.9417    0.4153 H   0  0  0  0  0  0  0  0  0  0  0  0
   10.6569    1.6953   -1.1854 H   0  0  0  0  0  0  0  0  0  0  0  0
    9.5908    3.5308    0.0033 H   0  0  0  0  0  0  0  0  0  0  0  0
    9.5843    2.6419    1.5358 H   0  0  0  0  0  0  0  0  0  0  0  0
    7.3072    2.5599    0.6847 H   0  0  0  0  0  0  0  0  0  0  0  0
    7.8795    2.4420   -0.9821 H   0  0  0  0  0  0  0  0  0  0  0  0
   -4.0812    2.6315   -1.0373 H   0  0  0  0  0  0  0  0  0  0  0  0
   -4.1926    1.6668   -2.6033 H   0  0  0  0  0  0  0  0  0  0  0  0
   -6.4625   -1.5565    0.6122 H   0  0  0  0  0  0  0  0  0  0  0  0
   -9.1286    2.7991   -1.1394 H   0  0  0  0  0  0  0  0  0  0  0  0
   -9.5044    1.4431   -2.2247 H   0  0  0  0  0  0  0  0  0  0  0  0
   -0.2892    1.8914   -1.0138 H   0  0  0  0  0  0  0  0  0  0  0  0
   -1.7604    2.5221   -1.7513 H   0  0  0  0  0  0  0  0  0  0  0  0
   -0.5771    0.0895   -3.1564 H   0  0  0  0  0  0  0  0  0  0  0  0
    0.4817    1.5190   -3.1198 H   0  0  0  0  0  0  0  0  0  0  0  0
   -1.1501    1.7355   -3.7779 H   0  0  0  0  0  0  0  0  0  0  0  0
   -8.5780   -0.6520    2.4368 H   0  0  0  0  0  0  0  0  0  0  0  0
   -8.0629   -2.2064    1.6507 H   0  0  0  0  0  0  0  0  0  0  0  0
   -9.0233   -1.6366   -1.4804 H   0  0  0  0  0  0  0  0  0  0  0  0
  -10.6926   -1.4810    2.8928 H   0  0  0  0  0  0  0  0  0  0  0  0
  -10.7578   -2.4572    1.3260 H   0  0  0  0  0  0  0  0  0  0  0  0
   -9.8407   -3.0185    2.7235 H   0  0  0  0  0  0  0  0  0  0  0  0
  1  2  2  0
  2  3  1  0
  3  4  2  0
  4  5  1  0
  5  6  2  0
  1  6  1  0
  4  7  1  0
  7  8  2  0
  8  9  1  0
  9 10  2  0
  5 10  1  0
  1 11  1  0
 11 12  1  0
 12 13  2  0
 12 14  1  0
 14 15  1  0
 15 16  1  0
 16 17  1  0
 17 18  1  0
 18 19  1  0
 14 19  1  0
 17 20  1  0
 20 21  1  0
 21 22  1  0
 22 23  1  0
 23 24  1  0
 24 25  1  0
 20 25  1  0
  8 26  1  0
 26 27  1  0
 27 28  1  0
  9 28  1  0
 27 29  1  0
 29 30  1  0
 30 31  2  0
 31 32  1  0
 31 33  1  0
 33 34  1  0
 34 35  1  0
 35 36  1  0
 30 36  1  0
 26 32  2  0
 29 37  2  0
 34 38  2  0
 10 39  1  0
 39 40  1  0
 33 41  1  0
 33 42  1  6
 41 43  1  0
  2 44  1  0
  3 45  1  0
  6 46  1  0
 15 47  1  0
 15 48  1  0
 16 49  1  0
 16 50  1  0
 17 51  1  0
 18 52  1  0
 18 53  1  0
 19 54  1  0
 19 55  1  0
 21 56  1  0
 21 57  1  0
 22 58  1  0
 22 59  1  0
 23 60  1  0
 23 61  1  0
 24 62  1  0
 24 63  1  0
 25 64  1  0
 25 65  1  0
 28 66  1  0
 28 67  1  0
 32 68  1  0
 36 69  1  0
 36 70  1  0
 39 71  1  0
 39 72  1  0
 40 73  1  0
 40 74  1  0
 40 75  1  0
 41 76  1  0
 41 77  1  0
 42 78  1  0
 43 79  1  0
 43 80  1  0
 43 81  1  0
M  END

