46505395
     RDKit          3D

 35 36  0  0  0  0  0  0  0  0999 V2000
    5.9231    0.3863   -1.0927 N   0  0  0  0  0  0  0  0  0  0  0  0
    4.6059    0.2483   -0.5883 C   0  0  0  0  0  0  0  0  0  0  0  0
    3.8843   -0.7735   -1.0609 N   0  0  0  0  0  0  0  0  0  0  0  0
    2.6303   -0.9555   -0.6201 C   0  0  0  0  0  0  0  0  0  0  0  0
    2.1000   -0.0914    0.3113 C   0  0  0  0  0  0  0  0  0  0  0  0
    0.8403   -0.5271    0.5526 N   0  0  0  0  0  0  0  0  0  0  0  0
   -0.0508    0.1392    1.5026 C   0  0  0  0  0  0  0  0  0  0  0  0
   -0.8086    1.2071    0.7710 C   0  0  0  0  0  0  0  0  0  0  0  0
   -1.6599    0.7582   -0.2397 N   0  0  0  0  0  0  0  0  0  0  0  0
   -2.9030    0.2095    0.0256 C   0  0  0  0  0  0  0  0  0  0  0  0
   -3.0443   -1.0184    0.8523 C   0  0  0  0  0  0  0  0  0  0  0  0
   -4.4544   -1.3020    0.8527 O   0  0  0  0  0  0  0  0  0  0  0  0
   -3.7830    0.1145   -1.2393 C   0  0  0  0  0  0  0  0  0  0  0  0
   -3.1864   -0.6720   -2.1979 O   0  0  0  0  0  0  0  0  0  0  0  0
    0.5756   -1.6111   -0.1824 C   0  0  0  0  0  0  0  0  0  0  0  0
    1.6752   -1.8756   -0.9042 N   0  0  0  0  0  0  0  0  0  0  0  0
    2.8827    0.9549    0.7747 C   0  0  0  0  0  0  0  0  0  0  0  0
    2.4102    1.7488    1.6232 O   0  0  0  0  0  0  0  0  0  0  0  0
    4.1458    1.1155    0.3128 N   0  0  0  0  0  0  0  0  0  0  0  0
    6.2157    1.3051   -1.4723 H   0  0  0  0  0  0  0  0  0  0  0  0
    6.5726   -0.4090   -1.0808 H   0  0  0  0  0  0  0  0  0  0  0  0
   -0.6395   -0.6408    1.9729 H   0  0  0  0  0  0  0  0  0  0  0  0
    0.5662    0.6118    2.3069 H   0  0  0  0  0  0  0  0  0  0  0  0
   -1.3320    1.8753    1.5334 H   0  0  0  0  0  0  0  0  0  0  0  0
   -0.0005    1.8811    0.3200 H   0  0  0  0  0  0  0  0  0  0  0  0
   -1.3784    0.9108   -1.2193 H   0  0  0  0  0  0  0  0  0  0  0  0
   -3.4792    1.0131    0.6283 H   0  0  0  0  0  0  0  0  0  0  0  0
   -2.5380   -1.9141    0.5382 H   0  0  0  0  0  0  0  0  0  0  0  0
   -2.8407   -0.7246    1.9107 H   0  0  0  0  0  0  0  0  0  0  0  0
   -4.6861   -1.6409    1.7528 H   0  0  0  0  0  0  0  0  0  0  0  0
   -4.7800   -0.2743   -0.9509 H   0  0  0  0  0  0  0  0  0  0  0  0
   -3.9375    1.1221   -1.6733 H   0  0  0  0  0  0  0  0  0  0  0  0
   -3.8686   -0.8756   -2.8859 H   0  0  0  0  0  0  0  0  0  0  0  0
   -0.3601   -2.1979   -0.2102 H   0  0  0  0  0  0  0  0  0  0  0  0
    4.7031    1.9022    0.6763 H   0  0  0  0  0  0  0  0  0  0  0  0
  1  2  1  0
  2  3  2  0
  3  4  1  0
  4  5  2  0
  5  6  1  0
  6  7  1  0
  7  8  1  0
  8  9  1  0
  9 10  1  0
 10 11  1  0
 11 12  1  0
 10 13  1  0
 13 14  1  0
  6 15  1  0
 15 16  2  0
  4 16  1  0
  5 17  1  0
 17 18  2  0
 17 19  1  0
  2 19  1  0
  1 20  1  0
  1 21  1  0
  7 22  1  0
  7 23  1  0
  8 24  1  0
  8 25  1  0
  9 26  1  0
 10 27  1  0
 11 28  1  0
 11 29  1  0
 12 30  1  0
 13 31  1  0
 13 32  1  0
 14 33  1  0
 15 34  1  0
 19 35  1  0
M  END

