46506124
     RDKit          3D

 14 13  0  0  1  0  0  0  0  0999 V2000
   -0.1125    0.8418   -1.4678 N   0  0  0  0  0  0  0  0  0  0  0  0
    0.0674    0.3582   -0.1307 C   0  0  1  0  0  0  0  0  0  0  0  0
   -0.7762   -0.8540    0.0402 C   0  0  0  0  0  0  0  0  0  0  0  0
   -1.9895   -0.7446    0.5495 C   0  0  0  0  0  0  0  0  0  0  0  0
    1.4869    0.0298    0.1220 C   0  0  0  0  0  0  0  0  0  0  0  0
    1.9605   -0.4592    1.3270 O   0  0  0  0  0  0  0  0  0  0  0  0
    2.3084    0.2040   -0.8075 O   0  0  0  0  0  0  0  0  0  0  0  0
   -0.2897    1.8706   -1.5141 H   0  0  0  0  0  0  0  0  0  0  0  0
    0.7367    0.6567   -2.0430 H   0  0  0  0  0  0  0  0  0  0  0  0
   -0.2631    1.1477    0.5789 H   0  0  0  0  0  0  0  0  0  0  0  0
   -0.4193   -1.8231   -0.2427 H   0  0  0  0  0  0  0  0  0  0  0  0
   -2.6346   -1.6008    0.6903 H   0  0  0  0  0  0  0  0  0  0  0  0
   -2.3804    0.2182    0.8453 H   0  0  0  0  0  0  0  0  0  0  0  0
    2.3053    0.1547    2.0526 H   0  0  0  0  0  0  0  0  0  0  0  0
  2  1  1  0
  2  3  1  0
  3  4  2  3
  2  5  1  0
  5  6  1  0
  5  7  2  0
  1  8  1  0
  1  9  1  0
  2 10  1  1
  3 11  1  0
  4 12  1  0
  4 13  1  0
  6 14  1  0
M  END

