46508355
     RDKit          3D

  5  4  0  0  0  0  0  0  0  0999 V2000
   -0.4521   -0.0549    0.0879 C   0  0  0  0  0  0  0  0  0  0  0  0
   -0.9882    1.0516   -0.0801 O   0  0  0  0  0  0  0  0  0  0  0  0
    0.9039   -0.1663    0.3095 O   0  0  0  0  0  0  0  0  0  0  0  0
   -1.0587   -0.9435    0.0597 H   0  0  0  0  0  0  0  0  0  0  0  0
    1.5951    0.1132   -0.3770 H   0  0  0  0  0  0  0  0  0  0  0  0
  1  2  2  0
  1  3  1  0
  1  4  1  0
  3  5  1  0
M  END

