46505850
     RDKit          3D

 57 61  0  0  0  0  0  0  0  0999 V2000
    8.8054    1.0331   -1.7944 F   0  0  0  0  0  0  0  0  0  0  0  0
    5.7025    1.3819    1.9216 O   0  0  0  0  0  0  0  0  0  0  0  0
   -2.9356    0.1919    2.4350 O   0  0  0  0  0  0  0  0  0  0  0  0
    0.1114   -0.9677    0.2460 N   0  0  0  0  0  0  0  0  0  0  0  0
   -4.1791    0.4834    0.5548 N   0  0  0  0  0  0  0  0  0  0  0  0
    4.4579    1.0636    2.0353 N   0  0  0  0  0  0  0  0  0  0  0  0
   -3.9305   -1.0278   -1.2260 N   0  0  0  0  0  0  0  0  0  0  0  0
    2.6695   -0.0927    0.6128 C   0  0  0  0  0  0  0  0  0  0  0  0
    1.7183    0.9306    0.0167 C   0  0  0  0  0  0  0  0  0  0  0  0
    2.5534   -1.4867    0.2252 C   0  0  0  0  0  0  0  0  0  0  0  0
    0.3303    0.4552    0.0887 C   0  0  0  0  0  0  0  0  0  0  0  0
    1.1442   -1.7946   -0.2488 C   0  0  0  0  0  0  0  0  0  0  0  0
   -0.3735   -1.2530    1.5750 C   0  0  0  0  0  0  0  0  0  0  0  0
    3.9872    0.5100    0.8739 C   0  0  0  0  0  0  0  0  0  0  0  0
   -1.6710   -2.0728    1.4794 C   0  0  0  0  0  0  0  0  0  0  0  0
   -2.6790   -1.3093    0.6929 C   0  0  0  0  0  0  0  0  0  0  0  0
    5.0955    0.5293    0.0425 C   0  0  0  0  0  0  0  0  0  0  0  0
   -4.8243    1.6490    1.0874 C   0  0  0  0  0  0  0  0  0  0  0  0
   -5.0403    2.7185    0.0701 C   0  0  0  0  0  0  0  0  0  0  0  0
   -4.5037    0.0554   -0.6847 C   0  0  0  0  0  0  0  0  0  0  0  0
   -5.1035    2.2784   -1.3511 C   0  0  0  0  0  0  0  0  0  0  0  0
   -5.5373    0.8303   -1.4484 C   0  0  0  0  0  0  0  0  0  0  0  0
   -3.2421   -0.2062    1.2797 C   0  0  0  0  0  0  0  0  0  0  0  0
   -2.9956   -1.7461   -0.5452 C   0  0  0  0  0  0  0  0  0  0  0  0
    6.1510    1.0817    0.7199 C   0  0  0  0  0  0  0  0  0  0  0  0
    5.2825    0.1474   -1.2853 C   0  0  0  0  0  0  0  0  0  0  0  0
   -2.4446   -2.9101   -1.2135 C   0  0  0  0  0  0  0  0  0  0  0  0
    7.3989    1.2488    0.1264 C   0  0  0  0  0  0  0  0  0  0  0  0
    6.5243    0.3211   -1.8838 C   0  0  0  0  0  0  0  0  0  0  0  0
    7.5695    0.8667   -1.1769 C   0  0  0  0  0  0  0  0  0  0  0  0
    2.2242   -0.1147    1.7349 H   0  0  0  0  0  0  0  0  0  0  0  0
    1.8999    1.8960    0.5404 H   0  0  0  0  0  0  0  0  0  0  0  0
    1.9534    1.0786   -1.0770 H   0  0  0  0  0  0  0  0  0  0  0  0
    3.2797   -1.8890   -0.5137 H   0  0  0  0  0  0  0  0  0  0  0  0
    2.7331   -2.1975    1.1240 H   0  0  0  0  0  0  0  0  0  0  0  0
   -0.2580    0.9846    0.8988 H   0  0  0  0  0  0  0  0  0  0  0  0
   -0.2397    0.7598   -0.8389 H   0  0  0  0  0  0  0  0  0  0  0  0
    0.8795   -2.8558   -0.0444 H   0  0  0  0  0  0  0  0  0  0  0  0
    1.2058   -1.7047   -1.3728 H   0  0  0  0  0  0  0  0  0  0  0  0
    0.3621   -1.7594    2.2231 H   0  0  0  0  0  0  0  0  0  0  0  0
   -0.6155   -0.2901    2.0532 H   0  0  0  0  0  0  0  0  0  0  0  0
   -2.0264   -2.1929    2.5464 H   0  0  0  0  0  0  0  0  0  0  0  0
   -1.4090   -3.0431    1.0958 H   0  0  0  0  0  0  0  0  0  0  0  0
   -5.8470    1.3852    1.4887 H   0  0  0  0  0  0  0  0  0  0  0  0
   -4.2671    2.0746    1.9618 H   0  0  0  0  0  0  0  0  0  0  0  0
   -6.0296    3.2621    0.2783 H   0  0  0  0  0  0  0  0  0  0  0  0
   -4.2665    3.5171    0.2294 H   0  0  0  0  0  0  0  0  0  0  0  0
   -4.0712    2.3381   -1.7759 H   0  0  0  0  0  0  0  0  0  0  0  0
   -5.7667    2.9718   -1.9111 H   0  0  0  0  0  0  0  0  0  0  0  0
   -5.5043    0.5638   -2.5342 H   0  0  0  0  0  0  0  0  0  0  0  0
   -6.4992    0.6485   -0.9853 H   0  0  0  0  0  0  0  0  0  0  0  0
    4.4237   -0.2573   -1.7873 H   0  0  0  0  0  0  0  0  0  0  0  0
   -2.3879   -2.6982   -2.3334 H   0  0  0  0  0  0  0  0  0  0  0  0
   -3.1944   -3.7523   -1.1355 H   0  0  0  0  0  0  0  0  0  0  0  0
   -1.5185   -3.3290   -0.8537 H   0  0  0  0  0  0  0  0  0  0  0  0
    8.2316    1.6566    0.6720 H   0  0  0  0  0  0  0  0  0  0  0  0
    6.6665    0.0380   -2.9089 H   0  0  0  0  0  0  0  0  0  0  0  0
  1 30  1  0
  2  6  1  0
  2 25  1  0
  3 23  2  0
  4 11  1  0
  4 12  1  0
  4 13  1  0
  5 18  1  0
  5 20  1  0
  5 23  1  0
  6 14  2  0
  7 20  2  0
  7 24  1  0
  8  9  1  0
  8 10  1  0
  8 14  1  0
  9 11  1  0
 10 12  1  0
 13 15  1  0
 14 17  1  0
 15 16  1  0
 16 23  1  0
 16 24  2  0
 17 25  2  0
 17 26  1  0
 18 19  1  0
 19 21  1  0
 20 22  1  0
 21 22  1  0
 24 27  1  0
 25 28  1  0
 26 29  2  0
 28 30  2  0
 29 30  1  0
  8 31  1  0
  9 32  1  0
  9 33  1  0
 10 34  1  0
 10 35  1  0
 11 36  1  0
 11 37  1  0
 12 38  1  0
 12 39  1  0
 13 40  1  0
 13 41  1  0
 15 42  1  0
 15 43  1  0
 18 44  1  0
 18 45  1  0
 19 46  1  0
 19 47  1  0
 21 48  1  0
 21 49  1  0
 22 50  1  0
 22 51  1  0
 26 52  1  0
 27 53  1  0
 27 54  1  0
 27 55  1  0
 28 56  1  0
 29 57  1  0
M  END

