46506877
     RDKit          3D

 84 86  0  0  1  0  0  0  0  0999 V2000
    6.9849    0.8926   -0.8024 O   0  0  0  0  0  0  0  0  0  0  0  0
    1.5061   -0.1670   -1.9351 O   0  0  0  0  0  0  0  0  0  0  0  0
   -2.8744   -1.6776   -2.8015 O   0  0  0  0  0  0  0  0  0  0  0  0
   -2.6172    0.2765   -1.5834 O   0  0  0  0  0  0  0  0  0  0  0  0
   -7.6469    0.8254    2.6676 O   0  0  0  0  0  0  0  0  0  0  0  0
   10.5829    3.2838   -2.8937 O   0  0  0  0  0  0  0  0  0  0  0  0
   -5.3178   -0.4598    4.9582 O   0  0  0  0  0  0  0  0  0  0  0  0
   -6.4512    3.0320    1.4940 O   0  0  0  0  0  0  0  0  0  0  0  0
    6.9539    3.4350   -0.9680 O   0  0  0  0  0  0  0  0  0  0  0  0
   -6.4004   -1.8661    6.3153 O   0  0  0  0  0  0  0  0  0  0  0  0
   -4.7389    1.6818    0.8947 O   0  0  0  0  0  0  0  0  0  0  0  0
    8.7035    4.4079   -1.9767 O   0  0  0  0  0  0  0  0  0  0  0  0
    1.7992    1.0429   -0.0103 N   0  0  0  0  0  0  0  0  0  0  0  0
   -0.9639   -1.2784   -1.2873 N   0  0  0  0  0  0  0  0  0  0  0  0
   -5.8874   -0.6274    2.3453 N   0  0  0  0  0  0  0  0  0  0  0  0
   -0.2206   -0.4794   -0.3358 C   0  0  1  0  0  0  0  0  0  0  0  0
   -0.3145   -1.1964    0.9849 C   0  0  0  0  0  0  0  0  0  0  0  0
   -1.7933   -1.1550    1.3363 C   0  0  0  0  0  0  0  0  0  0  0  0
    4.1990    1.0506   -0.8479 C   0  0  0  0  0  0  0  0  0  0  0  0
    2.9501    1.6936   -0.4467 C   0  0  0  0  0  0  0  0  0  0  0  0
    1.0063    0.1060   -0.7615 C   0  0  0  0  0  0  0  0  0  0  0  0
    4.9126    0.3233    0.2500 C   0  0  0  0  0  0  0  0  0  0  0  0
   -2.7355   -2.0137    0.8635 C   0  0  0  0  0  0  0  0  0  0  0  0
   -2.2044   -0.1319    2.1593 C   0  0  0  0  0  0  0  0  0  0  0  0
    6.2632   -0.2002   -0.3255 C   0  0  0  0  0  0  0  0  0  0  0  0
   -4.5236   -0.8488    2.0096 C   0  0  0  0  0  0  0  0  0  0  0  0
   -4.0916   -1.8720    1.1890 C   0  0  0  0  0  0  0  0  0  0  0  0
   -3.5318    0.0021    2.4775 C   0  0  0  0  0  0  0  0  0  0  0  0
   -2.1699   -0.8574   -1.8854 C   0  0  0  0  0  0  0  0  0  0  0  0
   -6.7968   -1.6314    2.7573 C   0  0  0  0  0  0  0  0  0  0  0  0
   -6.9628   -2.0229    4.0328 C   0  0  0  0  0  0  0  0  0  0  0  0
   -6.4632    0.6712    2.1718 C   0  0  0  0  0  0  0  0  0  0  0  0
    8.1996    0.8619   -1.4288 C   0  0  0  0  0  0  0  0  0  0  0  0
   -7.6043   -2.2337    1.7595 C   0  0  0  0  0  0  0  0  0  0  0  0
    8.7892    2.0146   -1.8387 C   0  0  0  0  0  0  0  0  0  0  0  0
   -7.9272   -3.0153    4.3403 C   0  0  0  0  0  0  0  0  0  0  0  0
   -8.5348   -3.1912    2.0733 C   0  0  0  0  0  0  0  0  0  0  0  0
    8.8882   -0.3363   -1.6826 C   0  0  0  0  0  0  0  0  0  0  0  0
   -8.7053   -3.5937    3.3761 C   0  0  0  0  0  0  0  0  0  0  0  0
   10.0313    2.0499   -2.4958 C   0  0  0  0  0  0  0  0  0  0  0  0
   -4.0716   -1.0654   -3.2904 C   0  0  0  0  0  0  0  0  0  0  0  0
   -6.2343   -1.4642    5.1346 C   0  0  0  0  0  0  0  0  0  0  0  0
   -5.8527    1.7754    1.5081 C   0  0  0  0  0  0  0  0  0  0  0  0
   10.0817   -0.3143   -2.3126 C   0  0  0  0  0  0  0  0  0  0  0  0
   10.6891    0.8807   -2.7396 C   0  0  0  0  0  0  0  0  0  0  0  0
    8.1675    3.2970   -1.6053 C   0  0  0  0  0  0  0  0  0  0  0  0
   -4.8242   -1.9147   -4.2196 C   0  0  0  0  0  0  0  0  0  0  0  0
   -5.0544   -1.4917   -5.4759 C   0  0  0  0  0  0  0  0  0  0  0  0
    6.3661    4.7071   -0.7633 C   0  0  0  0  0  0  0  0  0  0  0  0
   11.4527    3.3541   -3.3612 H   0  0  0  0  0  0  0  0  0  0  0  0
   -4.4208   -0.4974    5.4312 H   0  0  0  0  0  0  0  0  0  0  0  0
   -6.6757    3.5685    2.2916 H   0  0  0  0  0  0  0  0  0  0  0  0
    1.4359    1.2326    0.9787 H   0  0  0  0  0  0  0  0  0  0  0  0
   -0.6241   -2.2363   -1.5881 H   0  0  0  0  0  0  0  0  0  0  0  0
   -0.9203    0.4747   -0.1608 H   0  0  0  0  0  0  0  0  0  0  0  0
    0.2904   -0.7063    1.7446 H   0  0  0  0  0  0  0  0  0  0  0  0
   -0.0385   -2.2718    0.8630 H   0  0  0  0  0  0  0  0  0  0  0  0
    4.9189    1.8375   -1.2294 H   0  0  0  0  0  0  0  0  0  0  0  0
    4.0670    0.3960   -1.7546 H   0  0  0  0  0  0  0  0  0  0  0  0
    3.1687    2.5328    0.3271 H   0  0  0  0  0  0  0  0  0  0  0  0
    2.6168    2.3867   -1.3406 H   0  0  0  0  0  0  0  0  0  0  0  0
    5.1729    0.9355    1.1188 H   0  0  0  0  0  0  0  0  0  0  0  0
    4.3811   -0.5786    0.6044 H   0  0  0  0  0  0  0  0  0  0  0  0
   -2.4117   -2.8278    0.2172 H   0  0  0  0  0  0  0  0  0  0  0  0
   -1.4404    0.5589    2.5399 H   0  0  0  0  0  0  0  0  0  0  0  0
    6.7573   -0.6563    0.5589 H   0  0  0  0  0  0  0  0  0  0  0  0
    6.1114   -0.9685   -1.0760 H   0  0  0  0  0  0  0  0  0  0  0  0
   -4.8112   -2.5834    0.7829 H   0  0  0  0  0  0  0  0  0  0  0  0
   -3.7875    0.8348    3.1598 H   0  0  0  0  0  0  0  0  0  0  0  0
   -7.4679   -1.9059    0.7353 H   0  0  0  0  0  0  0  0  0  0  0  0
   -8.0303   -3.3034    5.3916 H   0  0  0  0  0  0  0  0  0  0  0  0
   -9.1674   -3.6440    1.3199 H   0  0  0  0  0  0  0  0  0  0  0  0
    8.4164   -1.2555   -1.3556 H   0  0  0  0  0  0  0  0  0  0  0  0
   -9.4526   -4.3599    3.6451 H   0  0  0  0  0  0  0  0  0  0  0  0
   -3.7669   -0.1059   -3.8129 H   0  0  0  0  0  0  0  0  0  0  0  0
   -4.6675   -0.7035   -2.4154 H   0  0  0  0  0  0  0  0  0  0  0  0
   10.6320   -1.2203   -2.5213 H   0  0  0  0  0  0  0  0  0  0  0  0
   11.6425    0.8434   -3.2389 H   0  0  0  0  0  0  0  0  0  0  0  0
   -5.2037   -2.8680   -3.9272 H   0  0  0  0  0  0  0  0  0  0  0  0
   -5.6168   -2.1234   -6.1709 H   0  0  0  0  0  0  0  0  0  0  0  0
   -4.6839   -0.5298   -5.8106 H   0  0  0  0  0  0  0  0  0  0  0  0
    5.5997    4.6996    0.0176 H   0  0  0  0  0  0  0  0  0  0  0  0
    7.1209    5.5000   -0.6188 H   0  0  0  0  0  0  0  0  0  0  0  0
    5.8431    4.9857   -1.7310 H   0  0  0  0  0  0  0  0  0  0  0  0
  1 25  1  0
  1 33  1  0
  2 21  2  0
  3 29  1  0
  3 41  1  0
  4 29  2  0
  5 32  2  0
  6 40  1  0
  7 42  1  0
  8 43  1  0
  9 46  1  0
  9 49  1  0
 10 42  2  0
 11 43  2  0
 12 46  2  0
 13 20  1  0
 13 21  1  0
 16 14  1  0
 14 29  1  0
 15 26  1  0
 15 30  1  0
 15 32  1  0
 16 17  1  0
 16 21  1  0
 17 18  1  0
 18 23  2  0
 18 24  1  0
 19 20  1  0
 19 22  1  0
 22 25  1  0
 23 27  1  0
 24 28  2  0
 26 27  2  0
 26 28  1  0
 30 31  2  0
 30 34  1  0
 31 36  1  0
 31 42  1  0
 32 43  1  0
 33 35  2  0
 33 38  1  0
 34 37  2  0
 35 40  1  0
 35 46  1  0
 36 39  2  0
 37 39  1  0
 38 44  2  0
 40 45  2  0
 41 47  1  0
 44 45  1  0
 47 48  2  3
  6 50  1  0
  7 51  1  0
  8 52  1  0
 13 53  1  0
 14 54  1  0
 16 55  1  1
 17 56  1  0
 17 57  1  0
 19 58  1  0
 19 59  1  0
 20 60  1  0
 20 61  1  0
 22 62  1  0
 22 63  1  0
 23 64  1  0
 24 65  1  0
 25 66  1  0
 25 67  1  0
 27 68  1  0
 28 69  1  0
 34 70  1  0
 36 71  1  0
 37 72  1  0
 38 73  1  0
 39 74  1  0
 41 75  1  0
 41 76  1  0
 44 77  1  0
 45 78  1  0
 47 79  1  0
 48 80  1  0
 48 81  1  0
 49 82  1  0
 49 83  1  0
 49 84  1  0
M  END

