46505859
     RDKit          3D

 14 13  0  0  0  0  0  0  0  0999 V2000
   -1.7285    1.7051    0.3049 O   0  0  0  0  0  0  0  0  0  0  0  0
    2.6979    0.4512   -0.5611 O   0  0  0  0  0  0  0  0  0  0  0  0
   -2.0943    0.2975   -1.4266 O   0  0  0  0  0  0  0  0  0  0  0  0
    0.9507    1.4130    0.4946 O   0  0  0  0  0  0  0  0  0  0  0  0
   -0.8056   -0.6412    0.3045 C   0  0  0  0  0  0  0  0  0  0  0  0
    0.5823   -0.7804   -0.2770 C   0  0  0  0  0  0  0  0  0  0  0  0
   -1.5644    0.4691   -0.3019 C   0  0  0  0  0  0  0  0  0  0  0  0
    1.4085    0.4172   -0.0907 C   0  0  0  0  0  0  0  0  0  0  0  0
   -2.2781    1.7205    1.1544 H   0  0  0  0  0  0  0  0  0  0  0  0
    3.3927   -0.0922   -0.0196 H   0  0  0  0  0  0  0  0  0  0  0  0
   -0.7929   -0.6204    1.4076 H   0  0  0  0  0  0  0  0  0  0  0  0
   -1.3543   -1.5912    0.0316 H   0  0  0  0  0  0  0  0  0  0  0  0
    1.0607   -1.6385    0.2656 H   0  0  0  0  0  0  0  0  0  0  0  0
    0.5254   -1.1096   -1.3395 H   0  0  0  0  0  0  0  0  0  0  0  0
  1  7  1  0
  2  8  1  0
  3  7  2  0
  4  8  2  0
  5  6  1  0
  5  7  1  0
  6  8  1  0
  1  9  1  0
  2 10  1  0
  5 11  1  0
  5 12  1  0
  6 13  1  0
  6 14  1  0
M  END

