46506607
     RDKit          3D

 29 30  0  0  0  0  0  0  0  0999 V2000
   -3.5721    0.9093    2.2094 O   0  0  0  0  0  0  0  0  0  0  0  0
   -0.9011    1.1591    2.0551 O   0  0  0  0  0  0  0  0  0  0  0  0
    4.3633   -0.4166   -0.9866 O   0  0  0  0  0  0  0  0  0  0  0  0
   -2.1777    0.1600    0.4000 N   0  0  0  0  0  0  0  0  0  0  0  0
   -3.4149    0.5700    1.0386 C   0  0  0  0  0  0  0  0  0  0  0  0
   -4.4474    0.4945   -0.0122 C   0  0  0  0  0  0  0  0  0  0  0  0
   -4.0218   -0.7800   -0.7015 C   0  0  0  0  0  0  0  0  0  0  0  0
   -2.4952   -0.5812   -0.7836 C   0  0  0  0  0  0  0  0  0  0  0  0
   -0.9147    0.5100    0.9391 C   0  0  0  0  0  0  0  0  0  0  0  0
    0.3951    0.2325    0.3962 C   0  0  0  0  0  0  0  0  0  0  0  0
    1.5308    0.5921    1.1369 C   0  0  0  0  0  0  0  0  0  0  0  0
    2.8093    0.3834    0.6922 C   0  0  0  0  0  0  0  0  0  0  0  0
    3.0508   -0.2006   -0.5268 C   0  0  0  0  0  0  0  0  0  0  0  0
    1.9638   -0.5633   -1.2752 C   0  0  0  0  0  0  0  0  0  0  0  0
    0.6560   -0.3502   -0.8216 C   0  0  0  0  0  0  0  0  0  0  0  0
    5.4817   -0.0392   -0.2079 C   0  0  0  0  0  0  0  0  0  0  0  0
   -4.2539    1.3260   -0.7204 H   0  0  0  0  0  0  0  0  0  0  0  0
   -5.4658    0.4638    0.3679 H   0  0  0  0  0  0  0  0  0  0  0  0
   -4.4587   -0.8840   -1.7130 H   0  0  0  0  0  0  0  0  0  0  0  0
   -4.1793   -1.6654   -0.0613 H   0  0  0  0  0  0  0  0  0  0  0  0
   -2.3534   -0.0239   -1.7237 H   0  0  0  0  0  0  0  0  0  0  0  0
   -2.0532   -1.6080   -0.7826 H   0  0  0  0  0  0  0  0  0  0  0  0
    1.4007    1.0633    2.1224 H   0  0  0  0  0  0  0  0  0  0  0  0
    3.6815    0.6704    1.2839 H   0  0  0  0  0  0  0  0  0  0  0  0
    2.1343   -1.0263   -2.2415 H   0  0  0  0  0  0  0  0  0  0  0  0
   -0.1506   -0.6466   -1.4625 H   0  0  0  0  0  0  0  0  0  0  0  0
    5.4535    1.0561    0.0369 H   0  0  0  0  0  0  0  0  0  0  0  0
    6.3826   -0.1798   -0.8391 H   0  0  0  0  0  0  0  0  0  0  0  0
    5.5563   -0.6256    0.7321 H   0  0  0  0  0  0  0  0  0  0  0  0
  1  5  2  0
  2  9  2  0
  3 13  1  0
  3 16  1  0
  4  5  1  0
  4  8  1  0
  4  9  1  0
  5  6  1  0
  6  7  1  0
  7  8  1  0
  9 10  1  0
 10 11  2  0
 10 15  1  0
 11 12  1  0
 12 13  2  0
 13 14  1  0
 14 15  2  0
  6 17  1  0
  6 18  1  0
  7 19  1  0
  7 20  1  0
  8 21  1  0
  8 22  1  0
 11 23  1  0
 12 24  1  0
 14 25  1  0
 15 26  1  0
 16 27  1  0
 16 28  1  0
 16 29  1  0
M  END

