46506613
     RDKit          3D

 23 23  0  0  1  0  0  0  0  0999 V2000
   -2.2752   -1.0066   -1.3315 N   0  0  0  0  0  0  0  0  0  0  0  0
   -2.2652   -0.1356   -0.1769 C   0  0  1  0  0  0  0  0  0  0  0  0
   -1.3059   -0.6171    0.8867 C   0  0  0  0  0  0  0  0  0  0  0  0
    0.0852   -0.6863    0.3951 C   0  0  0  0  0  0  0  0  0  0  0  0
    1.0381    0.3241    0.4418 C   0  0  0  0  0  0  0  0  0  0  0  0
    1.9363   -1.4307   -0.4957 C   0  0  0  0  0  0  0  0  0  0  0  0
    0.6610   -1.7444   -0.1817 N   0  0  0  0  0  0  0  0  0  0  0  0
   -1.8732    2.2191    0.4136 O   0  0  0  0  0  0  0  0  0  0  0  0
   -1.9297    1.2329   -0.5804 C   0  0  0  0  0  0  0  0  0  0  0  0
   -1.6989    1.5079   -1.7944 O   0  0  0  0  0  0  0  0  0  0  0  0
    2.1525   -0.1643   -0.1091 N   0  0  0  0  0  0  0  0  0  0  0  0
    3.4006    0.5568   -0.2662 C   0  0  0  0  0  0  0  0  0  0  0  0
   -1.4206   -0.9429   -1.9064 H   0  0  0  0  0  0  0  0  0  0  0  0
   -2.5222   -1.9765   -1.0487 H   0  0  0  0  0  0  0  0  0  0  0  0
   -3.2784   -0.1628    0.2696 H   0  0  0  0  0  0  0  0  0  0  0  0
   -1.6326   -1.5945    1.2945 H   0  0  0  0  0  0  0  0  0  0  0  0
   -1.3787    0.1048    1.7309 H   0  0  0  0  0  0  0  0  0  0  0  0
    0.9189    1.3219    0.8435 H   0  0  0  0  0  0  0  0  0  0  0  0
    2.6652   -2.0619   -0.9691 H   0  0  0  0  0  0  0  0  0  0  0  0
   -2.5037    3.0234    0.2861 H   0  0  0  0  0  0  0  0  0  0  0  0
    4.1996   -0.1276   -0.6387 H   0  0  0  0  0  0  0  0  0  0  0  0
    3.2920    1.3344   -1.0695 H   0  0  0  0  0  0  0  0  0  0  0  0
    3.7349    1.0257    0.6915 H   0  0  0  0  0  0  0  0  0  0  0  0
  2  1  1  0
  2  9  1  0
  2  3  1  0
  3  4  1  0
  4  7  1  0
  4  5  2  0
  5 11  1  0
  6 11  1  0
  6  7  2  0
  8  9  1  0
  9 10  2  0
 11 12  1  0
  1 13  1  0
  1 14  1  0
  2 15  1  1
  3 16  1  0
  3 17  1  0
  5 18  1  0
  6 19  1  0
  8 20  1  0
 12 21  1  0
 12 22  1  0
 12 23  1  0
M  END

