46504585
     RDKit          3D

 10  9  0  0  0  0  0  0  0  0999 V2000
   -1.0762   -0.6858   -0.0030 C   0  0  0  0  0  0  0  0  0  0  0  0
   -0.3791    0.6657   -0.1170 C   0  0  0  0  0  0  0  0  0  0  0  0
    1.0132    0.4007    0.0207 N   0  0  0  0  0  4  0  0  0  0  0  0
    2.1444    0.1693    0.1359 C   0  0  0  0  0  0  0  0  0  0  0  0
   -2.1603   -0.4683    0.0239 H   0  0  0  0  0  0  0  0  0  0  0  0
   -0.7587   -1.2960   -0.8569 H   0  0  0  0  0  0  0  0  0  0  0  0
   -0.7063   -1.1806    0.9240 H   0  0  0  0  0  0  0  0  0  0  0  0
   -0.5127    1.1357   -1.0891 H   0  0  0  0  0  0  0  0  0  0  0  0
   -0.7472    1.3039    0.7311 H   0  0  0  0  0  0  0  0  0  0  0  0
    3.1828   -0.0446    0.2303 H   0  0  0  0  0  0  0  0  0  0  0  0
  1  2  1  0
  2  3  1  0
  3  4  3  0
  1  5  1  0
  1  6  1  0
  1  7  1  0
  2  8  1  0
  2  9  1  0
  4 10  1  0
M  CHG  1   3   1
M  END

