46505123
     RDKit          3D

 55 54  0  0  1  0  0  0  0  0999 V2000
   -0.6405    0.6585   -0.7412 O   0  0  0  0  0  0  0  0  0  0  0  0
   -3.9613    2.8969    1.3599 O   0  0  0  0  0  0  0  0  0  0  0  0
   -1.9612    0.6324    3.1744 O   0  0  0  0  0  0  0  0  0  0  0  0
   -5.8035    3.5324    4.9795 O   0  0  0  0  0  0  0  0  0  0  0  0
   -4.5766    4.5607    3.2907 O   0  0  0  0  0  0  0  0  0  0  0  0
   -2.5758    0.5204    0.9727 N   0  0  0  0  0  0  0  0  0  0  0  0
    0.3331   -1.3780   -0.5180 N   0  0  0  0  0  0  0  0  0  0  0  0
    5.1920    1.8380   -2.4314 N   0  0  0  0  0  4  0  0  0  0  0  0
    6.2654   -0.2590   -2.0441 N   0  0  0  0  0  0  0  0  0  0  0  0
    7.1992    1.3886   -3.5875 N   0  0  0  0  0  0  0  0  0  0  0  0
   -2.8497   -1.7440    0.3287 C   0  0  0  0  0  0  0  0  0  0  0  0
   -1.8353   -0.7591    0.7363 C   0  0  1  0  0  0  0  0  0  0  0  0
   -2.4808   -3.1357    0.0099 C   0  0  0  0  0  0  0  0  0  0  0  0
   -0.7158   -0.4968   -0.1735 C   0  0  0  0  0  0  0  0  0  0  0  0
   -1.8093   -3.9057    1.1213 C   0  0  0  0  0  0  0  0  0  0  0  0
   -1.9066   -3.3825   -1.3521 C   0  0  0  0  0  0  0  0  0  0  0  0
    1.4133   -1.0388   -1.4303 C   0  0  0  0  0  0  0  0  0  0  0  0
    2.2307    0.1147   -0.9675 C   0  0  0  0  0  0  0  0  0  0  0  0
    3.3279    0.3640   -2.0104 C   0  0  0  0  0  0  0  0  0  0  0  0
   -2.5855    1.1505    2.2281 C   0  0  0  0  0  0  0  0  0  0  0  0
   -3.3066    2.4072    2.4781 C   0  0  2  0  0  0  0  0  0  0  0  0
    4.1337    1.5195   -1.5144 C   0  0  0  0  0  0  0  0  0  0  0  0
   -4.2621    2.1891    3.6197 C   0  0  0  0  0  0  0  0  0  0  0  0
   -4.8844    3.5118    3.9434 C   0  0  0  0  0  0  0  0  0  0  0  0
    6.1556    1.0259   -2.6665 C   0  0  0  0  0  0  0  0  0  0  0  0
   -3.2922    3.0920    0.6474 H   0  0  0  0  0  0  0  0  0  0  0  0
   -5.5981    4.0317    5.8433 H   0  0  0  0  0  0  0  0  0  0  0  0
   -3.1031    0.9655    0.1940 H   0  0  0  0  0  0  0  0  0  0  0  0
    0.3976   -2.3499   -0.1020 H   0  0  0  0  0  0  0  0  0  0  0  0
    5.2124    2.7627   -2.9465 H   0  0  0  0  0  0  0  0  0  0  0  0
    6.2469   -1.0904   -2.6970 H   0  0  0  0  0  0  0  0  0  0  0  0
    6.3565   -0.3695   -1.0286 H   0  0  0  0  0  0  0  0  0  0  0  0
    7.2754    2.3556   -3.9711 H   0  0  0  0  0  0  0  0  0  0  0  0
    7.9004    0.6869   -3.8897 H   0  0  0  0  0  0  0  0  0  0  0  0
   -3.5950   -1.8067    1.1859 H   0  0  0  0  0  0  0  0  0  0  0  0
   -3.4932   -1.3782   -0.5177 H   0  0  0  0  0  0  0  0  0  0  0  0
   -1.4302   -1.0242    1.7319 H   0  0  0  0  0  0  0  0  0  0  0  0
   -3.5090   -3.6718   -0.0454 H   0  0  0  0  0  0  0  0  0  0  0  0
   -1.5304   -4.8996    0.6881 H   0  0  0  0  0  0  0  0  0  0  0  0
   -0.8999   -3.4691    1.5186 H   0  0  0  0  0  0  0  0  0  0  0  0
   -2.5725   -4.1291    1.8954 H   0  0  0  0  0  0  0  0  0  0  0  0
   -2.5872   -4.0012   -1.9448 H   0  0  0  0  0  0  0  0  0  0  0  0
   -0.9184   -3.8823   -1.3481 H   0  0  0  0  0  0  0  0  0  0  0  0
   -1.8774   -2.3871   -1.8865 H   0  0  0  0  0  0  0  0  0  0  0  0
    2.0360   -1.9459   -1.6311 H   0  0  0  0  0  0  0  0  0  0  0  0
    0.9103   -0.8249   -2.4165 H   0  0  0  0  0  0  0  0  0  0  0  0
    1.6147    1.0198   -0.9431 H   0  0  0  0  0  0  0  0  0  0  0  0
    2.7025   -0.1464    0.0023 H   0  0  0  0  0  0  0  0  0  0  0  0
    2.8892    0.6241   -2.9910 H   0  0  0  0  0  0  0  0  0  0  0  0
    3.9268   -0.5521   -2.1325 H   0  0  0  0  0  0  0  0  0  0  0  0
   -2.5966    3.2128    2.8040 H   0  0  0  0  0  0  0  0  0  0  0  0
    3.4666    2.4051   -1.3652 H   0  0  0  0  0  0  0  0  0  0  0  0
    4.6009    1.2615   -0.5227 H   0  0  0  0  0  0  0  0  0  0  0  0
   -3.6258    1.8724    4.4911 H   0  0  0  0  0  0  0  0  0  0  0  0
   -5.0030    1.4274    3.3560 H   0  0  0  0  0  0  0  0  0  0  0  0
  1 14  2  0
 21  2  1  0
  3 20  2  0
  4 24  1  0
  5 24  2  0
 12  6  1  0
  6 20  1  0
  7 14  1  0
  7 17  1  0
  8 22  1  0
  8 25  2  3
  9 25  1  0
 10 25  1  0
 11 12  1  0
 11 13  1  0
 12 14  1  0
 13 15  1  0
 13 16  1  0
 17 18  1  0
 18 19  1  0
 19 22  1  0
 20 21  1  0
 21 23  1  0
 23 24  1  0
  2 26  1  0
  4 27  1  0
  6 28  1  0
  7 29  1  0
  8 30  1  0
  9 31  1  0
  9 32  1  0
 10 33  1  0
 10 34  1  0
 11 35  1  0
 11 36  1  0
 12 37  1  1
 13 38  1  0
 15 39  1  0
 15 40  1  0
 15 41  1  0
 16 42  1  0
 16 43  1  0
 16 44  1  0
 17 45  1  0
 17 46  1  0
 18 47  1  0
 18 48  1  0
 19 49  1  0
 19 50  1  0
 21 51  1  1
 22 52  1  0
 22 53  1  0
 23 54  1  0
 23 55  1  0
M  CHG  1   8   1
M  END

