46504946
     RDKit          3D

 20 19  0  0  0  0  0  0  0  0999 V2000
   -2.0433    1.3118   -0.5964 C   0  0  0  0  0  0  0  0  0  0  0  0
   -2.0801    0.1299    0.2399 C   0  0  0  0  0  0  0  0  0  0  0  0
    0.1301   -0.3217   -0.5294 C   0  0  0  0  0  0  0  0  0  0  0  0
    1.3691   -0.1196    0.3542 C   0  0  0  0  0  0  0  0  0  0  0  0
   -1.0294   -0.6666    0.2770 C   0  0  0  0  0  0  0  0  0  0  0  0
    2.5370    0.2301   -0.4826 C   0  0  0  0  0  0  0  0  0  0  0  0
   -1.0385   -1.8435    1.0957 N   0  0  0  0  0  0  0  0  0  0  0  0
    2.3966    0.3161   -1.7252 O   0  0  0  0  0  0  0  0  0  0  0  0
    3.7516    0.4529    0.1264 O   0  0  0  0  0  0  0  0  0  0  0  0
   -1.2858    2.0504   -0.2095 H   0  0  0  0  0  0  0  0  0  0  0  0
   -3.0134    1.8453   -0.5294 H   0  0  0  0  0  0  0  0  0  0  0  0
   -1.8486    1.1482   -1.6613 H   0  0  0  0  0  0  0  0  0  0  0  0
   -2.9739   -0.0852    0.8265 H   0  0  0  0  0  0  0  0  0  0  0  0
    0.3884   -1.2342   -1.1476 H   0  0  0  0  0  0  0  0  0  0  0  0
    0.0335    0.4978   -1.2207 H   0  0  0  0  0  0  0  0  0  0  0  0
    1.6158   -1.0871    0.8755 H   0  0  0  0  0  0  0  0  0  0  0  0
    1.1597    0.6093    1.1454 H   0  0  0  0  0  0  0  0  0  0  0  0
   -1.7618   -2.5541    0.8471 H   0  0  0  0  0  0  0  0  0  0  0  0
   -0.4023   -2.0153    1.8750 H   0  0  0  0  0  0  0  0  0  0  0  0
    4.0952    1.3355    0.4394 H   0  0  0  0  0  0  0  0  0  0  0  0
  1  2  1  0
  3  4  1  0
  2  5  2  0
  3  5  1  0
  4  6  1  0
  5  7  1  0
  6  8  2  0
  6  9  1  0
  1 10  1  0
  1 11  1  0
  1 12  1  0
  2 13  1  0
  3 14  1  0
  3 15  1  0
  4 16  1  0
  4 17  1  0
  7 18  1  0
  7 19  1  0
  9 20  1  0
M  END

