46508206
     RDKit          3D

 75 78  0  0  1  0  0  0  0  0999 V2000
    7.3134    0.7670    1.4013 C   0  0  0  0  0  0  0  0  0  0  0  0
    6.0755   -0.0990    1.3004 C   0  0  0  0  0  0  0  0  0  0  0  0
    6.3610   -1.4089    2.0232 C   0  0  0  0  0  0  0  0  0  0  0  0
    5.8331   -0.3448   -0.1748 C   0  0  0  0  0  0  0  0  0  0  0  0
    4.6502   -1.1672   -0.4609 C   0  0  0  0  0  0  0  0  0  0  0  0
    3.2943   -0.6597   -0.1060 C   0  0  0  0  0  0  0  0  0  0  0  0
    2.7667    0.5101   -0.8135 C   0  0  1  0  0  0  0  0  0  0  0  0
    3.6295    1.7246   -0.6341 C   0  0  0  0  0  0  0  0  0  0  0  0
    2.8571    0.2050   -2.2066 O   0  0  0  0  0  0  0  0  0  0  0  0
    1.3823    0.9295   -0.4803 C   0  0  1  0  0  0  0  0  0  0  0  0
    1.0645    2.1512   -1.3375 C   0  0  0  0  0  0  0  0  0  0  0  0
   -0.3551    1.8892   -1.8590 C   0  0  0  0  0  0  0  0  0  0  0  0
   -0.8740    1.0478   -0.7689 C   0  0  1  0  0  0  0  0  0  0  0  0
   -2.2250    0.5075   -0.8788 C   0  0  2  0  0  0  0  0  0  0  0  0
   -3.1591    1.7201   -1.0131 C   0  0  0  0  0  0  0  0  0  0  0  0
   -4.5404    1.2311   -0.9145 C   0  0  0  0  0  0  0  0  0  0  0  0
   -4.8979    0.1573   -0.2441 C   0  0  0  0  0  0  0  0  0  0  0  0
   -6.3295   -0.2516   -0.2083 C   0  0  0  0  0  0  0  0  0  0  0  0
   -6.7841   -0.3241    1.2352 C   0  0  1  0  0  0  0  0  0  0  0  0
   -7.3075   -1.5569    1.5757 O   0  0  0  0  0  0  0  0  0  0  0  0
   -5.6584    0.1099    2.1477 C   0  0  0  0  0  0  0  0  0  0  0  0
   -4.4160   -0.7273    1.9408 C   0  0  0  0  0  0  0  0  0  0  0  0
   -3.9389   -0.7019    0.5038 C   0  0  1  0  0  0  0  0  0  0  0  0
   -4.0815   -2.1057   -0.0495 C   0  0  0  0  0  0  0  0  0  0  0  0
   -2.5371   -0.1984    0.4413 C   0  0  1  0  0  0  0  0  0  0  0  0
   -1.5162   -1.3072    0.5702 C   0  0  0  0  0  0  0  0  0  0  0  0
   -0.1382   -0.6824    0.6910 C   0  0  0  0  0  0  0  0  0  0  0  0
    0.2503    0.0037   -0.6045 C   0  0  2  0  0  0  0  0  0  0  0  0
    0.2580   -0.9418   -1.7645 C   0  0  0  0  0  0  0  0  0  0  0  0
    7.6208    0.9101    2.4620 H   0  0  0  0  0  0  0  0  0  0  0  0
    7.0731    1.7452    0.9522 H   0  0  0  0  0  0  0  0  0  0  0  0
    8.1469    0.3344    0.8161 H   0  0  0  0  0  0  0  0  0  0  0  0
    5.2440    0.4235    1.7619 H   0  0  0  0  0  0  0  0  0  0  0  0
    5.4245   -1.7357    2.4931 H   0  0  0  0  0  0  0  0  0  0  0  0
    6.8325   -2.1561    1.3799 H   0  0  0  0  0  0  0  0  0  0  0  0
    7.0612   -1.1568    2.8614 H   0  0  0  0  0  0  0  0  0  0  0  0
    6.7285   -0.9772   -0.4886 H   0  0  0  0  0  0  0  0  0  0  0  0
    5.9737    0.5889   -0.7030 H   0  0  0  0  0  0  0  0  0  0  0  0
    4.8100   -2.1648    0.0283 H   0  0  0  0  0  0  0  0  0  0  0  0
    4.6409   -1.3905   -1.5635 H   0  0  0  0  0  0  0  0  0  0  0  0
    3.3467   -0.4637    1.0196 H   0  0  0  0  0  0  0  0  0  0  0  0
    2.6287   -1.5590   -0.1423 H   0  0  0  0  0  0  0  0  0  0  0  0
    4.2726    1.9370   -1.5460 H   0  0  0  0  0  0  0  0  0  0  0  0
    4.1697    1.8037    0.3056 H   0  0  0  0  0  0  0  0  0  0  0  0
    2.9800    2.6755   -0.6252 H   0  0  0  0  0  0  0  0  0  0  0  0
    3.6765    0.5477   -2.5936 H   0  0  0  0  0  0  0  0  0  0  0  0
    1.4050    1.3008    0.5874 H   0  0  0  0  0  0  0  0  0  0  0  0
    0.9838    3.0774   -0.7327 H   0  0  0  0  0  0  0  0  0  0  0  0
    1.7632    2.2511   -2.1912 H   0  0  0  0  0  0  0  0  0  0  0  0
   -0.9446    2.8342   -1.8999 H   0  0  0  0  0  0  0  0  0  0  0  0
   -0.3328    1.4011   -2.8401 H   0  0  0  0  0  0  0  0  0  0  0  0
   -0.8144    1.6465    0.1878 H   0  0  0  0  0  0  0  0  0  0  0  0
   -2.4622   -0.1309   -1.7215 H   0  0  0  0  0  0  0  0  0  0  0  0
   -2.9599    2.1662   -2.0092 H   0  0  0  0  0  0  0  0  0  0  0  0
   -2.9156    2.4003   -0.1864 H   0  0  0  0  0  0  0  0  0  0  0  0
   -5.3387    1.7889   -1.4297 H   0  0  0  0  0  0  0  0  0  0  0  0
   -6.9402    0.4500   -0.8099 H   0  0  0  0  0  0  0  0  0  0  0  0
   -6.3862   -1.2595   -0.7007 H   0  0  0  0  0  0  0  0  0  0  0  0
   -7.6157    0.4146    1.3411 H   0  0  0  0  0  0  0  0  0  0  0  0
   -8.3129   -1.5438    1.6416 H   0  0  0  0  0  0  0  0  0  0  0  0
   -5.9967   -0.0765    3.1875 H   0  0  0  0  0  0  0  0  0  0  0  0
   -5.4735    1.1905    2.0026 H   0  0  0  0  0  0  0  0  0  0  0  0
   -3.6458   -0.3427    2.6412 H   0  0  0  0  0  0  0  0  0  0  0  0
   -4.6861   -1.7646    2.2696 H   0  0  0  0  0  0  0  0  0  0  0  0
   -3.9778   -2.0491   -1.1454 H   0  0  0  0  0  0  0  0  0  0  0  0
   -3.2783   -2.7775    0.3236 H   0  0  0  0  0  0  0  0  0  0  0  0
   -5.0861   -2.5014    0.2619 H   0  0  0  0  0  0  0  0  0  0  0  0
   -2.3451    0.5238    1.2600 H   0  0  0  0  0  0  0  0  0  0  0  0
   -1.7007   -1.8935    1.4974 H   0  0  0  0  0  0  0  0  0  0  0  0
   -1.5455   -1.9251   -0.3300 H   0  0  0  0  0  0  0  0  0  0  0  0
   -0.1739    0.1411    1.4581 H   0  0  0  0  0  0  0  0  0  0  0  0
    0.5372   -1.4700    1.0079 H   0  0  0  0  0  0  0  0  0  0  0  0
    0.7112   -1.9214   -1.5105 H   0  0  0  0  0  0  0  0  0  0  0  0
   -0.7914   -1.2204   -2.0854 H   0  0  0  0  0  0  0  0  0  0  0  0
    0.7164   -0.5496   -2.6680 H   0  0  0  0  0  0  0  0  0  0  0  0
  1  2  1  0
  2  3  1  0
  2  4  1  0
  4  5  1  0
  5  6  1  0
  6  7  1  0
  7  8  1  0
  7  9  1  6
 10  7  1  0
 10 11  1  0
 11 12  1  0
 13 12  1  0
 13 14  1  0
 14 15  1  0
 15 16  1  0
 16 17  2  0
 17 18  1  0
 18 19  1  0
 19 20  1  0
 19 21  1  0
 21 22  1  0
 22 23  1  0
 17 23  1  0
 23 24  1  6
 23 25  1  0
 14 25  1  0
 25 26  1  0
 26 27  1  0
 27 28  1  0
 10 28  1  0
 13 28  1  0
 28 29  1  6
  1 30  1  0
  1 31  1  0
  1 32  1  0
  2 33  1  0
  3 34  1  0
  3 35  1  0
  3 36  1  0
  4 37  1  0
  4 38  1  0
  5 39  1  0
  5 40  1  0
  6 41  1  0
  6 42  1  0
  8 43  1  0
  8 44  1  0
  8 45  1  0
  9 46  1  0
 10 47  1  1
 11 48  1  0
 11 49  1  0
 12 50  1  0
 12 51  1  0
 13 52  1  1
 14 53  1  6
 15 54  1  0
 15 55  1  0
 16 56  1  0
 18 57  1  0
 18 58  1  0
 19 59  1  6
 20 60  1  0
 21 61  1  0
 21 62  1  0
 22 63  1  0
 22 64  1  0
 24 65  1  0
 24 66  1  0
 24 67  1  0
 25 68  1  1
 26 69  1  0
 26 70  1  0
 27 71  1  0
 27 72  1  0
 29 73  1  0
 29 74  1  0
 29 75  1  0
M  END

