46507609
     RDKit          3D

 81 87  0  0  1  0  0  0  0  0999 V2000
    7.2452   -2.7382    1.4633 C   0  0  0  0  0  0  0  0  0  0  0  0
   -4.6962   -3.5455   -2.2189 C   0  0  0  0  0  0  0  0  0  0  0  0
    1.0751   -2.3964   -2.5525 C   0  0  0  0  0  0  0  0  0  0  0  0
    6.9950   -0.9563   -3.3189 C   0  0  0  0  0  0  0  0  0  0  0  0
   -4.7238    2.5330    1.0349 C   0  0  0  0  0  0  0  0  0  0  0  0
   -4.0993    1.3886    0.6264 C   0  0  0  0  0  0  0  0  0  0  0  0
   -5.1700    3.4839    1.3910 C   0  0  0  0  0  0  0  0  0  0  0  0
    4.7871   -2.0059    2.5274 C   0  0  0  0  0  0  0  0  0  0  0  0
    3.6339   -1.6958    3.1250 C   0  0  0  0  0  0  0  0  0  0  0  0
   -2.7371    3.6103    1.6232 C   0  0  0  0  0  0  0  0  0  0  0  0
   -3.3666    4.4172    2.0012 C   0  0  0  0  0  0  0  0  0  0  0  0
    6.4656   -1.6489   -0.6559 C   0  0  0  0  0  0  0  0  0  0  0  0
   -0.7591    2.3788    0.9194 C   0  0  0  0  0  0  0  0  0  0  0  0
    4.3297   -0.6334   -0.8259 C   0  0  0  0  0  0  0  0  0  0  0  0
   -2.9144    7.2403    1.5356 C   0  0  0  0  0  0  0  0  0  0  0  0
    6.2312   -1.9982    0.6458 C   0  0  0  0  0  0  0  0  0  0  0  0
   -3.2883   -2.9726   -2.0921 C   0  0  2  0  0  0  0  0  0  0  0  0
   -2.0504    2.5378    1.1008 C   0  0  0  0  0  0  0  0  0  0  0  0
    5.5467   -0.9757   -1.4066 C   0  0  0  0  0  0  0  0  0  0  0  0
    5.0137   -1.6572    1.2304 C   0  0  0  0  0  0  0  0  0  0  0  0
   -2.7511    1.3059    0.6298 C   0  0  0  0  0  0  0  0  0  0  0  0
    4.0620   -0.9685    0.4784 C   0  0  0  0  0  0  0  0  0  0  0  0
    2.6361   -1.0023    2.4181 C   0  0  0  0  0  0  0  0  0  0  0  0
   -0.4564    1.0909    0.3345 C   0  0  2  0  0  0  0  0  0  0  0  0
   -5.6263    4.7763    1.8899 C   0  0  2  0  0  0  0  0  0  0  0  0
   -4.0838    6.8417    2.3868 C   0  0  2  0  0  0  0  0  0  0  0  0
    2.8311   -0.6271    1.0855 C   0  0  0  0  0  0  0  0  0  0  0  0
   -0.8147   -2.4826   -1.1169 C   0  0  2  0  0  0  0  0  0  0  0  0
   -2.3052   -4.0799   -2.2556 C   0  0  1  0  0  0  0  0  0  0  0  0
   -1.0921   -3.9372   -1.3636 C   0  0  2  0  0  0  0  0  0  0  0  0
   -1.7286    0.3270    0.3188 C   0  0  2  0  0  0  0  0  0  0  0  0
    1.8126    0.0825    0.3427 C   0  0  0  0  0  0  0  0  0  0  0  0
   -2.0093   -1.8046   -0.5387 C   0  0  2  0  0  0  0  0  0  0  0  0
   -4.8317    8.2407    0.7855 C   0  0  0  0  0  0  0  0  0  0  0  0
   -4.3440    5.3932    2.4396 C   0  0  2  0  0  0  0  0  0  0  0  0
   -0.2189   -1.8119   -2.2515 N   0  0  0  0  0  0  0  0  0  0  0  0
    1.4840   -0.7138    3.0776 O   0  0  0  0  0  0  0  0  0  0  0  0
   -2.8371   -5.3389   -2.0304 O   0  0  0  0  0  0  0  0  0  0  0  0
   -1.3469   -4.5380   -0.1192 O   0  0  0  0  0  0  0  0  0  0  0  0
    1.8797    0.4618   -0.8377 O   0  0  0  0  0  0  0  0  0  0  0  0
   -5.4965    9.0894    0.1371 O   0  0  0  0  0  0  0  0  0  0  0  0
    5.7575   -0.6088   -2.7271 O   0  0  0  0  0  0  0  0  0  0  0  0
   -3.5438    7.8560    0.4338 O   0  0  0  0  0  0  0  0  0  0  0  0
   -3.2271   -2.3088   -0.8957 O   0  0  0  0  0  0  0  0  0  0  0  0
    0.6058    0.4050    0.9559 O   0  0  0  0  0  0  0  0  0  0  0  0
   -5.2196    7.5451    1.9280 O   0  0  0  0  0  0  0  0  0  0  0  0
   -1.9141   -0.4412   -0.8122 O   0  0  0  0  0  0  0  0  0  0  0  0
   -5.3815    4.9928    3.2749 O   0  0  0  0  0  0  0  0  0  0  0  0
    6.8790   -3.7197    1.7976 H   0  0  0  0  0  0  0  0  0  0  0  0
    7.5152   -2.1355    2.3534 H   0  0  0  0  0  0  0  0  0  0  0  0
    8.1388   -2.8634    0.8339 H   0  0  0  0  0  0  0  0  0  0  0  0
   -5.0344   -3.8023   -1.1982 H   0  0  0  0  0  0  0  0  0  0  0  0
   -4.7231   -4.4010   -2.9168 H   0  0  0  0  0  0  0  0  0  0  0  0
   -5.3502   -2.7023   -2.5428 H   0  0  0  0  0  0  0  0  0  0  0  0
    1.0167   -3.0448   -3.4251 H   0  0  0  0  0  0  0  0  0  0  0  0
    1.4274   -3.0432   -1.6963 H   0  0  0  0  0  0  0  0  0  0  0  0
    1.8487   -1.6121   -2.7697 H   0  0  0  0  0  0  0  0  0  0  0  0
    7.7827   -0.3443   -2.8046 H   0  0  0  0  0  0  0  0  0  0  0  0
    7.2099   -2.0333   -3.2920 H   0  0  0  0  0  0  0  0  0  0  0  0
    6.9830   -0.5928   -4.3843 H   0  0  0  0  0  0  0  0  0  0  0  0
   -4.6562    0.5218    0.2912 H   0  0  0  0  0  0  0  0  0  0  0  0
    5.5693   -2.5421    3.0569 H   0  0  0  0  0  0  0  0  0  0  0  0
    3.4220   -1.9599    4.1637 H   0  0  0  0  0  0  0  0  0  0  0  0
    7.4342   -1.9300   -1.0919 H   0  0  0  0  0  0  0  0  0  0  0  0
    0.0416    3.1076    1.1657 H   0  0  0  0  0  0  0  0  0  0  0  0
    3.6072   -0.1026   -1.4185 H   0  0  0  0  0  0  0  0  0  0  0  0
   -2.3348    6.3842    1.1924 H   0  0  0  0  0  0  0  0  0  0  0  0
   -2.2777    8.0068    2.0301 H   0  0  0  0  0  0  0  0  0  0  0  0
   -3.1842   -2.2275   -2.9126 H   0  0  0  0  0  0  0  0  0  0  0  0
   -0.0757    1.2985   -0.7153 H   0  0  0  0  0  0  0  0  0  0  0  0
   -6.3583    5.3577    1.3562 H   0  0  0  0  0  0  0  0  0  0  0  0
   -3.8882    7.2013    3.4383 H   0  0  0  0  0  0  0  0  0  0  0  0
   -0.0061   -2.4666   -0.3242 H   0  0  0  0  0  0  0  0  0  0  0  0
   -1.9364   -4.0601   -3.3021 H   0  0  0  0  0  0  0  0  0  0  0  0
   -0.2031   -4.4551   -1.7715 H   0  0  0  0  0  0  0  0  0  0  0  0
   -1.6834   -0.3830    1.2066 H   0  0  0  0  0  0  0  0  0  0  0  0
   -1.9279   -1.9437    0.5828 H   0  0  0  0  0  0  0  0  0  0  0  0
   -0.8188   -1.9622   -3.0905 H   0  0  0  0  0  0  0  0  0  0  0  0
    0.6843   -0.2753    2.8527 H   0  0  0  0  0  0  0  0  0  0  0  0
   -3.5561   -5.3607   -1.3738 H   0  0  0  0  0  0  0  0  0  0  0  0
   -0.9033   -4.0250    0.5862 H   0  0  0  0  0  0  0  0  0  0  0  0
  5  6  1  0
  5  7  3  0
  8  9  2  0
 10 11  3  0
  1 16  1  0
 12 16  1  0
 17  2  1  0
 10 18  1  0
 13 18  2  0
 12 19  2  0
 14 19  1  0
  8 20  1  0
 16 20  2  0
  6 21  2  0
 18 21  1  0
 14 22  2  0
 20 22  1  0
  9 23  1  0
 13 24  1  0
  7 25  1  0
 15 26  1  0
 22 27  1  0
 23 27  2  0
 17 29  1  0
 28 30  1  0
 29 30  1  0
 21 31  1  0
 24 31  1  0
 27 32  1  0
 28 33  1  0
 35 11  1  1
 25 35  1  0
 26 35  1  0
  3 36  1  0
 28 36  1  0
 23 37  1  0
 29 38  1  0
 30 39  1  0
 32 40  2  0
 34 41  2  0
  4 42  1  0
 19 42  1  0
 15 43  1  0
 34 43  1  0
 17 44  1  0
 33 44  1  0
 24 45  1  0
 32 45  1  0
 26 46  1  0
 34 46  1  0
 31 47  1  0
 33 47  1  0
 25 48  1  0
 35 48  1  0
  1 49  1  0
  1 50  1  0
  1 51  1  0
  2 52  1  0
  2 53  1  0
  2 54  1  0
  3 55  1  0
  3 56  1  0
  3 57  1  0
  4 58  1  0
  4 59  1  0
  4 60  1  0
  6 61  1  0
  8 62  1  0
  9 63  1  0
 12 64  1  0
 13 65  1  0
 14 66  1  0
 15 67  1  0
 15 68  1  0
 17 69  1  6
 24 70  1  6
 25 71  1  6
 26 72  1  1
 28 73  1  1
 29 74  1  6
 30 75  1  6
 31 76  1  1
 33 77  1  1
 36 78  1  0
 37 79  1  0
 38 80  1  0
 39 81  1  0
M  END

