46508227
     RDKit          3D

 19 18  0  0  0  0  0  0  0  0999 V2000
    1.0967   -0.5931    0.1069 C   0  0  0  0  0  0  0  0  0  0  0  0
    2.1456    0.4065   -0.1279 C   0  0  0  0  0  0  0  0  0  0  0  0
    1.8994    1.5643   -0.3905 O   0  0  0  0  0  0  0  0  0  0  0  0
   -0.2432   -0.1067    0.0011 N   0  0  0  0  0  4  0  0  0  0  0  0
   -0.4474    0.9393   -0.9495 C   0  0  0  0  0  0  0  0  0  0  0  0
   -0.6665    0.3913    1.3042 C   0  0  0  0  0  0  0  0  0  0  0  0
   -1.1848   -1.1897   -0.3259 C   0  0  0  0  0  0  0  0  0  0  0  0
    1.2815   -1.0187    1.1364 H   0  0  0  0  0  0  0  0  0  0  0  0
    1.2090   -1.4169   -0.6491 H   0  0  0  0  0  0  0  0  0  0  0  0
    3.1795    0.1075   -0.0662 H   0  0  0  0  0  0  0  0  0  0  0  0
   -0.3961    1.9514   -0.4921 H   0  0  0  0  0  0  0  0  0  0  0  0
   -1.4787    0.8576   -1.3492 H   0  0  0  0  0  0  0  0  0  0  0  0
    0.2215    0.8530   -1.8513 H   0  0  0  0  0  0  0  0  0  0  0  0
   -1.2107   -0.4051    1.8826 H   0  0  0  0  0  0  0  0  0  0  0  0
    0.2197    0.7354    1.8595 H   0  0  0  0  0  0  0  0  0  0  0  0
   -1.3434    1.2527    1.1983 H   0  0  0  0  0  0  0  0  0  0  0  0
   -0.6886   -1.8068   -1.0871 H   0  0  0  0  0  0  0  0  0  0  0  0
   -1.4828   -1.7446    0.5851 H   0  0  0  0  0  0  0  0  0  0  0  0
   -2.1109   -0.7776   -0.7853 H   0  0  0  0  0  0  0  0  0  0  0  0
  1  4  1  0
  4  5  1  0
  2  3  2  0
  4  6  1  0
  1  2  1  0
  4  7  1  0
  1  8  1  0
  1  9  1  0
  2 10  1  0
  5 11  1  0
  5 12  1  0
  5 13  1  0
  6 14  1  0
  6 15  1  0
  6 16  1  0
  7 17  1  0
  7 18  1  0
  7 19  1  0
M  CHG  1   4   1
M  END

