46508883
     RDKit          3D

 18 17  0  0  0  0  0  0  0  0999 V2000
   -1.6825   -1.1709    0.3438 C   0  0  0  0  0  0  0  0  0  0  0  0
    0.6650   -0.5228    0.3241 C   0  0  0  0  0  0  0  0  0  0  0  0
    1.7609    0.3859   -0.1493 C   0  0  0  0  0  0  0  0  0  0  0  0
    2.9532   -0.0714    0.4431 O   0  0  0  0  0  0  0  0  0  0  0  0
   -0.6849   -0.1659   -0.2234 C   0  0  0  0  0  0  0  0  0  0  0  0
   -1.1397    1.2070    0.2320 C   0  0  0  0  0  0  0  0  0  0  0  0
   -2.2259   -1.6717   -0.4774 H   0  0  0  0  0  0  0  0  0  0  0  0
   -1.1783   -1.9702    0.9261 H   0  0  0  0  0  0  0  0  0  0  0  0
   -2.4054   -0.6961    1.0318 H   0  0  0  0  0  0  0  0  0  0  0  0
    0.6427   -0.5108    1.4212 H   0  0  0  0  0  0  0  0  0  0  0  0
    0.9063   -1.5454   -0.0331 H   0  0  0  0  0  0  0  0  0  0  0  0
    1.9229    0.2490   -1.2558 H   0  0  0  0  0  0  0  0  0  0  0  0
    1.6314    1.4353    0.0992 H   0  0  0  0  0  0  0  0  0  0  0  0
    3.3673    0.6187    1.0117 H   0  0  0  0  0  0  0  0  0  0  0  0
   -0.7119   -0.2001   -1.3222 H   0  0  0  0  0  0  0  0  0  0  0  0
   -0.3372    1.9680    0.1563 H   0  0  0  0  0  0  0  0  0  0  0  0
   -1.9927    1.5247   -0.3863 H   0  0  0  0  0  0  0  0  0  0  0  0
   -1.4911    1.1365    1.2940 H   0  0  0  0  0  0  0  0  0  0  0  0
  1  5  1  0
  2  5  1  0
  2  3  1  0
  3  4  1  0
  5  6  1  0
  1  7  1  0
  1  8  1  0
  1  9  1  0
  2 10  1  0
  2 11  1  0
  3 12  1  0
  3 13  1  0
  4 14  1  0
  5 15  1  0
  6 16  1  0
  6 17  1  0
  6 18  1  0
M  END

