46506860
     RDKit          3D

 77 80  0  0  0  0  0  0  0  0999 V2000
   -2.0303   -3.1801    2.7561 C   0  0  0  0  0  0  0  0  0  0  0  0
   -4.2975   -2.1012   -5.1243 C   0  0  0  0  0  0  0  0  0  0  0  0
    0.4794   -1.3539    3.4412 C   0  0  0  0  0  0  0  0  0  0  0  0
   -1.3778   -4.6131   -3.5797 C   0  0  0  0  0  0  0  0  0  0  0  0
    5.2950    1.0701    2.7425 C   0  0  0  0  0  0  0  0  0  0  0  0
   -2.7002    0.3502    0.9505 C   0  0  0  0  0  0  0  0  0  0  0  0
   -1.4758   -3.0828    1.5666 C   0  0  0  0  0  0  0  0  0  0  0  0
   -3.8935   -2.9169   -4.2322 C   0  0  0  0  0  0  0  0  0  0  0  0
    6.5782    2.3501    0.2368 C   0  0  0  0  0  0  0  0  0  0  0  0
   -3.9034    3.0022    1.4657 C   0  0  0  0  0  0  0  0  0  0  0  0
    7.7015    1.7138   -0.5627 C   0  0  0  0  0  0  0  0  0  0  0  0
   -5.1083    3.1927    2.3338 C   0  0  0  0  0  0  0  0  0  0  0  0
    2.9205   -0.5758    1.6962 C   0  0  0  0  0  0  0  0  0  0  0  0
   -0.1799   -3.2202   -1.1745 C   0  0  0  0  0  0  0  0  0  0  0  0
   -3.8335   -0.5839   -2.1872 C   0  0  0  0  0  0  0  0  0  0  0  0
    0.6701   -1.7165    2.0094 C   0  0  0  0  0  0  0  0  0  0  0  0
   -1.8586   -3.3919   -2.8717 C   0  0  0  0  0  0  0  0  0  0  0  0
    4.8467    0.9212    1.3558 C   0  0  0  0  0  0  0  0  0  0  0  0
   -3.5784    1.0210   -0.0545 C   0  0  0  0  0  0  0  0  0  0  0  0
   -0.2154   -2.4513    1.2530 C   0  0  0  0  0  0  0  0  0  0  0  0
   -2.9672   -2.6217   -3.1646 C   0  0  0  0  0  0  0  0  0  0  0  0
    5.3744    1.4582    0.2446 C   0  0  0  0  0  0  0  0  0  0  0  0
   -4.1227    2.2543    0.2259 C   0  0  0  0  0  0  0  0  0  0  0  0
    1.7749   -1.3584    1.2230 C   0  0  0  0  0  0  0  0  0  0  0  0
   -1.2744   -2.8079   -1.7916 C   0  0  0  0  0  0  0  0  0  0  0  0
    3.6954    0.1275    0.9247 C   0  0  0  0  0  0  0  0  0  0  0  0
   -3.9984    0.5152   -1.2985 C   0  0  0  0  0  0  0  0  0  0  0  0
    0.3759   -2.5308   -0.0180 C   0  0  0  0  0  0  0  0  0  0  0  0
   -3.0143   -1.5784   -2.2290 C   0  0  0  0  0  0  0  0  0  0  0  0
    8.9016    2.5781   -0.5869 C   0  0  0  0  0  0  0  0  0  0  0  0
   -6.1996    3.9503    1.7548 C   0  0  0  0  0  0  0  0  0  0  0  0
    4.5688    1.0142   -0.8853 C   0  0  0  0  0  0  0  0  0  0  0  0
   -4.9382    2.5477   -0.9190 C   0  0  0  0  0  0  0  0  0  0  0  0
    1.5398   -1.8734    0.0230 N   0  0  0  0  0  0  0  0  0  0  0  0
   -1.9720   -1.7137   -1.4087 N   0  0  0  0  0  0  0  0  0  0  0  0
    3.5977    0.2431   -0.4797 N   0  0  0  0  0  0  0  0  0  0  0  0
   -4.8195    1.4771   -1.7944 N   0  0  0  0  0  0  0  0  0  0  0  0
    9.9179    2.1614   -1.1989 O   0  0  0  0  0  0  0  0  0  0  0  0
    8.9458    3.8120    0.0310 O   0  0  0  0  0  0  0  0  0  0  0  0
   -6.0267    5.1602    1.4656 O   0  0  0  0  0  0  0  0  0  0  0  0
   -7.4264    3.3800    1.5125 O   0  0  0  0  0  0  0  0  0  0  0  0
    4.8232    1.3783   -2.2068 O   0  0  0  0  0  0  0  0  0  0  0  0
   -5.6416    3.6061   -1.0922 O   0  0  0  0  0  0  0  0  0  0  0  0
   -1.6277   -2.8022    3.6754 H   0  0  0  0  0  0  0  0  0  0  0  0
   -3.0020   -3.6890    2.8874 H   0  0  0  0  0  0  0  0  0  0  0  0
   -3.9813   -1.0605   -5.1854 H   0  0  0  0  0  0  0  0  0  0  0  0
   -5.0049   -2.3971   -5.9059 H   0  0  0  0  0  0  0  0  0  0  0  0
    1.3289   -0.6563    3.7057 H   0  0  0  0  0  0  0  0  0  0  0  0
   -0.4545   -0.7740    3.5890 H   0  0  0  0  0  0  0  0  0  0  0  0
    0.6070   -2.2093    4.1076 H   0  0  0  0  0  0  0  0  0  0  0  0
   -0.4502   -4.3231   -4.1240 H   0  0  0  0  0  0  0  0  0  0  0  0
   -2.1431   -4.9608   -4.3036 H   0  0  0  0  0  0  0  0  0  0  0  0
   -1.1049   -5.4296   -2.8687 H   0  0  0  0  0  0  0  0  0  0  0  0
    4.6909    1.8823    3.2082 H   0  0  0  0  0  0  0  0  0  0  0  0
    6.3674    1.2621    2.8344 H   0  0  0  0  0  0  0  0  0  0  0  0
    5.0831    0.0971    3.2674 H   0  0  0  0  0  0  0  0  0  0  0  0
   -2.9657    0.7529    1.9878 H   0  0  0  0  0  0  0  0  0  0  0  0
   -2.9537   -0.7149    1.0609 H   0  0  0  0  0  0  0  0  0  0  0  0
   -1.6413    0.5971    0.8533 H   0  0  0  0  0  0  0  0  0  0  0  0
   -2.0690   -3.5419    0.7569 H   0  0  0  0  0  0  0  0  0  0  0  0
   -4.3123   -3.9663   -4.2996 H   0  0  0  0  0  0  0  0  0  0  0  0
    6.3335    3.3439   -0.1907 H   0  0  0  0  0  0  0  0  0  0  0  0
    6.9384    2.5021    1.2582 H   0  0  0  0  0  0  0  0  0  0  0  0
   -3.0269    2.7009    2.0390 H   0  0  0  0  0  0  0  0  0  0  0  0
   -3.6404    4.0684    1.1228 H   0  0  0  0  0  0  0  0  0  0  0  0
    8.0132    0.7410   -0.0871 H   0  0  0  0  0  0  0  0  0  0  0  0
    7.3664    1.4943   -1.5700 H   0  0  0  0  0  0  0  0  0  0  0  0
   -5.5188    2.1984    2.6854 H   0  0  0  0  0  0  0  0  0  0  0  0
   -4.7459    3.6671    3.2945 H   0  0  0  0  0  0  0  0  0  0  0  0
    3.1356   -0.5878    2.7726 H   0  0  0  0  0  0  0  0  0  0  0  0
    0.2943   -4.1193   -1.5829 H   0  0  0  0  0  0  0  0  0  0  0  0
   -4.5966   -0.6725   -3.0520 H   0  0  0  0  0  0  0  0  0  0  0  0
    2.2208   -1.7523   -0.7766 H   0  0  0  0  0  0  0  0  0  0  0  0
   -1.6942   -1.0850   -0.6559 H   0  0  0  0  0  0  0  0  0  0  0  0
    9.7529    4.3812   -0.0638 H   0  0  0  0  0  0  0  0  0  0  0  0
   -7.6012    2.3791    1.5969 H   0  0  0  0  0  0  0  0  0  0  0  0
    5.2491    2.2808   -2.3895 H   0  0  0  0  0  0  0  0  0  0  0  0
  1  7  2  3
  2  8  2  3
  9 11  1  0
 10 12  1  0
  3 16  1  0
  4 17  1  0
  5 18  1  0
  6 19  1  0
  7 20  1  0
 16 20  1  0
  8 21  1  0
 17 21  2  0
  9 22  1  0
 18 22  2  0
 10 23  1  0
 19 23  2  0
 13 24  1  0
 16 24  2  0
 14 25  2  0
 17 25  1  0
 13 26  2  0
 18 26  1  0
 15 27  1  0
 19 27  1  0
 14 28  1  0
 20 28  2  0
 15 29  2  0
 21 29  1  0
 11 30  1  0
 12 31  1  0
 22 32  1  0
 23 33  1  0
 24 34  1  0
 28 34  1  0
 25 35  1  0
 29 35  1  0
 26 36  1  0
 32 36  2  0
 27 37  2  0
 33 37  1  0
 30 38  2  0
 30 39  1  0
 31 40  2  0
 31 41  1  0
 32 42  1  0
 33 43  2  0
  1 44  1  0
  1 45  1  0
  2 46  1  0
  2 47  1  0
  3 48  1  0
  3 49  1  0
  3 50  1  0
  4 51  1  0
  4 52  1  0
  4 53  1  0
  5 54  1  0
  5 55  1  0
  5 56  1  0
  6 57  1  0
  6 58  1  0
  6 59  1  0
  7 60  1  0
  8 61  1  0
  9 62  1  0
  9 63  1  0
 10 64  1  0
 10 65  1  0
 11 66  1  0
 11 67  1  0
 12 68  1  0
 12 69  1  0
 13 70  1  0
 14 71  1  0
 15 72  1  0
 34 73  1  0
 35 74  1  0
 39 75  1  0
 41 76  1  0
 42 77  1  0
M  END

