46504805
     RDKit          3D

 90 91  0  0  1  0  0  0  0  0999 V2000
    5.8340    6.7526    1.3988 C   0  0  0  0  0  0  0  0  0  0  0  0
   -5.0163   -3.1447    2.5302 C   0  0  0  0  0  0  0  0  0  0  0  0
   -5.2998   -3.2219    0.0952 C   0  0  0  0  0  0  0  0  0  0  0  0
   -6.3529   -1.4438    1.4148 C   0  0  0  0  0  0  0  0  0  0  0  0
    4.9747    6.1890    0.2702 C   0  0  0  0  0  0  0  0  0  0  0  0
    3.6363    5.8720    0.8662 C   0  0  0  0  0  0  0  0  0  0  0  0
   -5.6259   -0.5703   -3.7935 C   0  0  0  0  0  0  0  0  0  0  0  0
   -4.3186   -0.5845   -4.2350 C   0  0  0  0  0  0  0  0  0  0  0  0
   -5.8779   -0.2668   -2.4637 C   0  0  0  0  0  0  0  0  0  0  0  0
    2.6280    5.3380   -0.1221 C   0  0  0  0  0  0  0  0  0  0  0  0
   -3.2404   -0.3130   -3.4238 C   0  0  0  0  0  0  0  0  0  0  0  0
   -4.7743    0.0098   -1.6428 C   0  0  0  0  0  0  0  0  0  0  0  0
    2.0018   -1.7060   -1.1839 C   0  0  0  0  0  0  0  0  0  0  0  0
    2.3449   -2.9141   -0.6136 C   0  0  0  0  0  0  0  0  0  0  0  0
    3.0756    4.0725   -0.7965 C   0  0  0  0  0  0  0  0  0  0  0  0
    3.4247   -0.6437    0.3579 C   0  0  0  0  0  0  0  0  0  0  0  0
   -2.3928    0.3393   -1.1925 C   0  0  0  0  0  0  0  0  0  0  0  0
    2.1872    0.7942   -1.2805 C   0  0  0  0  0  0  0  0  0  0  0  0
    2.9955   -5.3743    0.4938 C   0  0  0  0  0  0  0  0  0  0  0  0
   -3.4828   -0.0098   -2.0947 C   0  0  0  0  0  0  0  0  0  0  0  0
    2.5319   -0.5216   -0.7154 C   0  0  0  0  0  0  0  0  0  0  0  0
    3.7710   -1.8442    0.9314 C   0  0  0  0  0  0  0  0  0  0  0  0
    1.1557    1.5937   -0.5915 C   0  0  1  0  0  0  0  0  0  0  0  0
   -1.5533   -0.7564   -0.6388 C   0  0  1  0  0  0  0  0  0  0  0  0
    3.2245   -2.9930    0.4390 C   0  0  0  0  0  0  0  0  0  0  0  0
    3.4253   -6.6076    1.1493 C   0  0  0  0  0  0  0  0  0  0  0  0
    0.9707    2.9462   -1.3564 C   0  0  2  0  0  0  0  0  0  0  0  0
   -0.5381    0.0132    0.2695 C   0  0  1  0  0  0  0  0  0  0  0  0
    4.6964   -1.9060    2.0468 C   0  0  0  0  0  0  0  0  0  0  0  0
   -2.7914   -2.0359    1.0927 C   0  0  1  0  0  0  0  0  0  0  0  0
   -5.0930   -2.3051    1.2576 C   0  0  0  0  0  0  0  0  0  0  0  0
    2.1677    3.5483   -1.7301 N   0  0  0  0  0  0  0  0  0  0  0  0
   -0.1430    1.1372   -0.4379 N   0  0  0  0  0  0  0  0  0  0  0  0
   -2.0743   -1.8835   -0.0737 N   0  0  0  0  0  0  0  0  0  0  0  0
    2.9356   -7.6963    0.7458 O   0  0  0  0  0  0  0  0  0  0  0  0
    4.3383   -6.6690    2.1883 O   0  0  0  0  0  0  0  0  0  0  0  0
    0.1718    3.7003   -0.4976 O   0  0  0  0  0  0  0  0  0  0  0  0
   -1.2265    0.4643    1.4328 O   0  0  0  0  0  0  0  0  0  0  0  0
    4.9931   -3.0007    2.5707 O   0  0  0  0  0  0  0  0  0  0  0  0
    5.2732   -0.7540    2.5555 O   0  0  0  0  0  0  0  0  0  0  0  0
   -2.0607   -1.7939    2.2879 O   0  0  0  0  0  0  0  0  0  0  0  0
    3.5930   -4.2168    1.0395 O   0  0  0  0  0  0  0  0  0  0  0  0
   -4.0172   -1.4410    1.1315 O   0  0  0  0  0  0  0  0  0  0  0  0
    6.3497    7.6972    1.1003 H   0  0  0  0  0  0  0  0  0  0  0  0
    5.2068    7.0407    2.2716 H   0  0  0  0  0  0  0  0  0  0  0  0
    6.5234    5.9666    1.7317 H   0  0  0  0  0  0  0  0  0  0  0  0
   -4.4712   -2.5848    3.3016 H   0  0  0  0  0  0  0  0  0  0  0  0
   -6.0624   -3.3955    2.8015 H   0  0  0  0  0  0  0  0  0  0  0  0
   -4.5083   -4.0886    2.2539 H   0  0  0  0  0  0  0  0  0  0  0  0
   -4.4163   -3.3878   -0.5289 H   0  0  0  0  0  0  0  0  0  0  0  0
   -6.1034   -2.8211   -0.5596 H   0  0  0  0  0  0  0  0  0  0  0  0
   -5.7284   -4.1991    0.4723 H   0  0  0  0  0  0  0  0  0  0  0  0
   -6.7391   -1.0942    0.4350 H   0  0  0  0  0  0  0  0  0  0  0  0
   -7.0973   -1.9497    2.0425 H   0  0  0  0  0  0  0  0  0  0  0  0
   -6.0506   -0.5108    1.9685 H   0  0  0  0  0  0  0  0  0  0  0  0
    4.8235    6.9113   -0.5496 H   0  0  0  0  0  0  0  0  0  0  0  0
    5.4565    5.2718   -0.1357 H   0  0  0  0  0  0  0  0  0  0  0  0
    3.7198    5.1930    1.7548 H   0  0  0  0  0  0  0  0  0  0  0  0
    3.1771    6.8201    1.2752 H   0  0  0  0  0  0  0  0  0  0  0  0
   -6.4769   -0.7767   -4.4073 H   0  0  0  0  0  0  0  0  0  0  0  0
   -4.1099   -0.8198   -5.2790 H   0  0  0  0  0  0  0  0  0  0  0  0
   -6.8653   -0.2308   -2.0357 H   0  0  0  0  0  0  0  0  0  0  0  0
    2.4748    6.1645   -0.8645 H   0  0  0  0  0  0  0  0  0  0  0  0
    1.7073    5.1502    0.4640 H   0  0  0  0  0  0  0  0  0  0  0  0
   -2.2122   -0.3166   -3.7269 H   0  0  0  0  0  0  0  0  0  0  0  0
   -5.0217    0.2649   -0.6041 H   0  0  0  0  0  0  0  0  0  0  0  0
    1.3119   -1.7288   -2.0150 H   0  0  0  0  0  0  0  0  0  0  0  0
    1.9335   -3.8586   -0.9727 H   0  0  0  0  0  0  0  0  0  0  0  0
    4.0511    4.2954   -1.3128 H   0  0  0  0  0  0  0  0  0  0  0  0
    3.3436    3.3244   -0.0154 H   0  0  0  0  0  0  0  0  0  0  0  0
    3.8742    0.2438    0.7711 H   0  0  0  0  0  0  0  0  0  0  0  0
   -1.6901    0.9768   -1.8307 H   0  0  0  0  0  0  0  0  0  0  0  0
   -2.7210    1.0808   -0.4007 H   0  0  0  0  0  0  0  0  0  0  0  0
    3.1599    1.3779   -1.2527 H   0  0  0  0  0  0  0  0  0  0  0  0
    2.0095    0.7196   -2.3985 H   0  0  0  0  0  0  0  0  0  0  0  0
    3.2429   -5.4033   -0.6017 H   0  0  0  0  0  0  0  0  0  0  0  0
    1.8954   -5.2112    0.5456 H   0  0  0  0  0  0  0  0  0  0  0  0
    1.5744    1.9119    0.4064 H   0  0  0  0  0  0  0  0  0  0  0  0
   -0.8910   -1.0779   -1.5037 H   0  0  0  0  0  0  0  0  0  0  0  0
    0.3530    2.6765   -2.2339 H   0  0  0  0  0  0  0  0  0  0  0  0
    0.1944   -0.6900    0.6580 H   0  0  0  0  0  0  0  0  0  0  0  0
   -3.0267   -3.1576    1.1891 H   0  0  0  0  0  0  0  0  0  0  0  0
    2.0455    4.1943   -2.5386 H   0  0  0  0  0  0  0  0  0  0  0  0
   -0.8240    1.9233   -0.3341 H   0  0  0  0  0  0  0  0  0  0  0  0
   -1.8731   -2.7948   -0.5951 H   0  0  0  0  0  0  0  0  0  0  0  0
    4.2994   -5.9210    2.8750 H   0  0  0  0  0  0  0  0  0  0  0  0
    0.1948    3.4033    0.4353 H   0  0  0  0  0  0  0  0  0  0  0  0
   -0.5458    0.6175    2.1389 H   0  0  0  0  0  0  0  0  0  0  0  0
    5.9867   -0.7818    3.2803 H   0  0  0  0  0  0  0  0  0  0  0  0
   -1.9461   -2.5782    2.8425 H   0  0  0  0  0  0  0  0  0  0  0  0
  1  5  1  0
  5  6  1  0
  7  8  2  0
  7  9  1  0
  6 10  1  0
  8 11  1  0
  9 12  2  0
 13 14  2  0
 10 15  1  0
 11 20  2  0
 12 20  1  0
 17 20  1  0
 13 21  1  0
 16 21  2  0
 18 21  1  0
 16 22  1  0
 18 23  1  0
 17 24  1  0
 14 25  1  0
 22 25  2  0
 19 26  1  0
 23 27  1  0
 24 28  1  0
 22 29  1  0
  2 31  1  0
  3 31  1  0
  4 31  1  0
 15 32  1  0
 27 32  1  0
 23 33  1  0
 28 33  1  0
 24 34  1  0
 30 34  1  0
 26 35  2  0
 26 36  1  0
 27 37  1  0
 28 38  1  0
 29 39  2  0
 29 40  1  0
 30 41  1  0
 19 42  1  0
 25 42  1  0
 30 43  1  0
 31 43  1  0
  1 44  1  0
  1 45  1  0
  1 46  1  0
  2 47  1  0
  2 48  1  0
  2 49  1  0
  3 50  1  0
  3 51  1  0
  3 52  1  0
  4 53  1  0
  4 54  1  0
  4 55  1  0
  5 56  1  0
  5 57  1  0
  6 58  1  0
  6 59  1  0
  7 60  1  0
  8 61  1  0
  9 62  1  0
 10 63  1  0
 10 64  1  0
 11 65  1  0
 12 66  1  0
 13 67  1  0
 14 68  1  0
 15 69  1  0
 15 70  1  0
 16 71  1  0
 17 72  1  0
 17 73  1  0
 18 74  1  0
 18 75  1  0
 19 76  1  0
 19 77  1  0
 23 78  1  1
 24 79  1  6
 27 80  1  6
 28 81  1  1
 30 82  1  1
 32 83  1  0
 33 84  1  0
 34 85  1  0
 36 86  1  0
 37 87  1  0
 38 88  1  0
 40 89  1  0
 41 90  1  0
M  END

