46505129
     RDKit          3D

 56 59  0  0  0  0  0  0  0  0999 V2000
    4.3063    1.6239   -0.3104 C   0  0  0  0  0  0  0  0  0  0  0  0
    5.3424    0.7723   -0.6839 C   0  0  0  0  0  0  0  0  0  0  0  0
    5.2266   -0.5626   -0.3754 C   0  0  0  0  0  0  0  0  0  0  0  0
    4.1146   -1.0178    0.2809 C   0  0  0  0  0  0  0  0  0  0  0  0
    3.1051   -0.1633    0.6402 C   0  0  0  0  0  0  0  0  0  0  0  0
    3.2321    1.1373    0.3323 N   0  0  0  0  0  0  0  0  0  0  0  0
    6.5141    1.2754   -1.3801 C   0  0  0  0  0  0  0  0  0  0  0  0
    7.4218    0.4859   -1.6986 O   0  0  0  0  0  0  0  0  0  0  0  0
    6.5997    2.6137   -1.6746 O   0  0  0  0  0  0  0  0  0  0  0  0
    1.8846   -0.6225    1.3530 C   0  0  0  0  0  0  0  0  0  0  0  0
    1.9301   -0.3568    2.8368 C   0  0  0  0  0  0  0  0  0  0  0  0
    2.1430   -1.7341    2.3327 C   0  0  0  0  0  0  0  0  0  0  0  0
   -0.4875    0.1904    1.1860 C   0  0  0  0  0  0  0  0  0  0  0  0
    0.5685   -0.5676    0.6762 C   0  0  0  0  0  0  0  0  0  0  0  0
    0.3466   -1.2665   -0.4862 C   0  0  0  0  0  0  0  0  0  0  0  0
   -0.8914   -1.1925   -1.0938 C   0  0  0  0  0  0  0  0  0  0  0  0
   -1.9399   -0.4430   -0.5922 C   0  0  0  0  0  0  0  0  0  0  0  0
   -3.2515   -0.4094   -1.3028 C   0  0  0  0  0  0  0  0  0  0  0  0
   -4.3947   -0.0069   -0.4403 C   0  0  0  0  0  0  0  0  0  0  0  0
   -4.0699    0.2636    0.9898 C   0  0  0  0  0  0  0  0  0  0  0  0
   -2.7792    1.0679    1.1588 C   0  0  0  0  0  0  0  0  0  0  0  0
   -1.7097    0.2522    0.5698 C   0  0  0  0  0  0  0  0  0  0  0  0
   -2.6074    1.2893    2.6480 C   0  0  0  0  0  0  0  0  0  0  0  0
   -2.9078    2.4227    0.4925 C   0  0  0  0  0  0  0  0  0  0  0  0
   -3.1909    0.5263   -2.5029 C   0  0  0  0  0  0  0  0  0  0  0  0
   -3.5233   -1.7949   -1.8520 C   0  0  0  0  0  0  0  0  0  0  0  0
    1.4019   -2.1051   -1.1118 C   0  0  0  0  0  0  0  0  0  0  0  0
    4.4238    2.6615   -0.5642 H   0  0  0  0  0  0  0  0  0  0  0  0
    6.0452   -1.2309   -0.6713 H   0  0  0  0  0  0  0  0  0  0  0  0
    4.0477   -2.0915    0.5155 H   0  0  0  0  0  0  0  0  0  0  0  0
    7.0249    3.3063   -1.0724 H   0  0  0  0  0  0  0  0  0  0  0  0
    0.9846   -0.1931    3.3973 H   0  0  0  0  0  0  0  0  0  0  0  0
    2.7733    0.2211    3.2640 H   0  0  0  0  0  0  0  0  0  0  0  0
    3.1768   -2.1230    2.4555 H   0  0  0  0  0  0  0  0  0  0  0  0
    1.3745   -2.4940    2.5373 H   0  0  0  0  0  0  0  0  0  0  0  0
   -0.2864    0.7264    2.0950 H   0  0  0  0  0  0  0  0  0  0  0  0
   -1.0627   -1.7535   -2.0228 H   0  0  0  0  0  0  0  0  0  0  0  0
   -4.9031    0.9195   -0.8394 H   0  0  0  0  0  0  0  0  0  0  0  0
   -5.2205   -0.7765   -0.4338 H   0  0  0  0  0  0  0  0  0  0  0  0
   -4.9103    0.8058    1.4454 H   0  0  0  0  0  0  0  0  0  0  0  0
   -3.8734   -0.7156    1.4908 H   0  0  0  0  0  0  0  0  0  0  0  0
   -3.6264    1.4992    3.0487 H   0  0  0  0  0  0  0  0  0  0  0  0
   -1.9457    2.1527    2.8654 H   0  0  0  0  0  0  0  0  0  0  0  0
   -2.2329    0.3499    3.1174 H   0  0  0  0  0  0  0  0  0  0  0  0
   -3.8114    2.4917   -0.1298 H   0  0  0  0  0  0  0  0  0  0  0  0
   -2.9680    3.2490    1.2385 H   0  0  0  0  0  0  0  0  0  0  0  0
   -2.0217    2.6405   -0.1481 H   0  0  0  0  0  0  0  0  0  0  0  0
   -2.5168    1.3813   -2.3152 H   0  0  0  0  0  0  0  0  0  0  0  0
   -2.8503   -0.0312   -3.3978 H   0  0  0  0  0  0  0  0  0  0  0  0
   -4.2228    0.8723   -2.7121 H   0  0  0  0  0  0  0  0  0  0  0  0
   -4.5835   -2.0602   -1.8485 H   0  0  0  0  0  0  0  0  0  0  0  0
   -2.8981   -2.5426   -1.2955 H   0  0  0  0  0  0  0  0  0  0  0  0
   -3.1694   -1.8620   -2.9198 H   0  0  0  0  0  0  0  0  0  0  0  0
    2.0967   -1.5273   -1.7282 H   0  0  0  0  0  0  0  0  0  0  0  0
    1.8477   -2.7115   -0.3178 H   0  0  0  0  0  0  0  0  0  0  0  0
    0.9236   -2.8424   -1.8154 H   0  0  0  0  0  0  0  0  0  0  0  0
  1  2  2  0
  2  3  1  0
  3  4  2  0
  4  5  1  0
  5  6  2  0
  1  6  1  0
  7  8  2  0
  7  9  1  0
  2  7  1  0
 10 11  1  0
 11 12  1  0
 10 12  1  0
 13 14  2  0
 14 15  1  0
 15 16  2  0
 16 17  1  0
 17 18  1  0
 18 19  1  0
 19 20  1  0
 20 21  1  0
 21 22  1  0
 13 22  1  0
 17 22  2  0
 21 23  1  0
 21 24  1  0
 18 25  1  0
 18 26  1  0
 15 27  1  0
 10 14  1  0
  5 10  1  0
  1 28  1  0
  3 29  1  0
  4 30  1  0
  9 31  1  0
 11 32  1  0
 11 33  1  0
 12 34  1  0
 12 35  1  0
 13 36  1  0
 16 37  1  0
 19 38  1  0
 19 39  1  0
 20 40  1  0
 20 41  1  0
 23 42  1  0
 23 43  1  0
 23 44  1  0
 24 45  1  0
 24 46  1  0
 24 47  1  0
 25 48  1  0
 25 49  1  0
 25 50  1  0
 26 51  1  0
 26 52  1  0
 26 53  1  0
 27 54  1  0
 27 55  1  0
 27 56  1  0
M  END

