46507504
     RDKit          3D

 12 11  0  0  0  0  0  0  0  0999 V2000
   -0.7194    1.2938   -0.0223 N   0  0  0  0  0  0  0  0  0  0  0  0
   -0.5263   -0.1029    0.1146 C   0  0  0  0  0  0  0  0  0  0  0  0
   -1.5488   -0.8613    0.4197 C   0  0  0  0  0  0  0  0  0  0  0  0
    0.7804   -0.7038   -0.0769 C   0  0  0  0  0  0  0  0  0  0  0  0
    1.9098    0.1297   -0.4133 N   0  0  0  0  0  0  0  0  0  0  0  0
    1.0100   -1.9221    0.0301 O   0  0  0  0  0  0  0  0  0  0  0  0
   -0.9829    1.8111    0.8589 H   0  0  0  0  0  0  0  0  0  0  0  0
   -0.6154    1.8089   -0.9230 H   0  0  0  0  0  0  0  0  0  0  0  0
   -2.5119   -0.4036    0.5590 H   0  0  0  0  0  0  0  0  0  0  0  0
   -1.4289   -1.9107    0.5277 H   0  0  0  0  0  0  0  0  0  0  0  0
    2.5883    0.4299    0.3302 H   0  0  0  0  0  0  0  0  0  0  0  0
    2.0451    0.4312   -1.4048 H   0  0  0  0  0  0  0  0  0  0  0  0
  1  2  1  0
  2  3  2  3
  2  4  1  0
  4  5  1  0
  4  6  2  0
  1  7  1  0
  1  8  1  0
  3  9  1  0
  3 10  1  0
  5 11  1  0
  5 12  1  0
M  END

