46505571
     RDKit          3D

 13 12  0  0  0  0  0  0  0  0999 V2000
   -0.9850   -0.8365    0.2311 C   0  0  0  0  0  0  0  0  0  0  0  0
   -0.0094    0.2288   -0.1750 C   0  0  0  0  0  0  0  0  0  0  0  0
    1.4308   -0.1524    0.1216 C   0  0  0  0  0  0  0  0  0  0  0  0
   -0.0899    0.3828   -1.5691 O   0  0  0  0  0  0  0  0  0  0  0  0
   -0.3540    1.4570    0.5227 C   0  0  0  0  0  0  0  0  0  0  0  0
   -0.6389    2.4397    1.0983 N   0  0  0  0  0  0  0  0  0  0  0  0
   -0.4652   -1.7316    0.6528 H   0  0  0  0  0  0  0  0  0  0  0  0
   -1.7020   -0.5078    1.0056 H   0  0  0  0  0  0  0  0  0  0  0  0
   -1.5875   -1.1903   -0.6298 H   0  0  0  0  0  0  0  0  0  0  0  0
    2.1190    0.1761   -0.6865 H   0  0  0  0  0  0  0  0  0  0  0  0
    1.8050    0.2673    1.0598 H   0  0  0  0  0  0  0  0  0  0  0  0
    1.4811   -1.2790    0.1034 H   0  0  0  0  0  0  0  0  0  0  0  0
   -1.0040    0.7457   -1.7349 H   0  0  0  0  0  0  0  0  0  0  0  0
  1  2  1  0
  2  3  1  0
  2  4  1  0
  2  5  1  0
  5  6  3  0
  1  7  1  0
  1  8  1  0
  1  9  1  0
  3 10  1  0
  3 11  1  0
  3 12  1  0
  4 13  1  0
M  END

