46505389
     RDKit          3D

 49 51  0  0  0  0  0  0  0  0999 V2000
   -2.6326   -1.4659    0.9817 O   0  0  0  0  0  0  0  0  0  0  0  0
   -4.1285   -0.4966    2.3537 O   0  0  0  0  0  0  0  0  0  0  0  0
    0.8012   -0.1281    1.1608 N   0  0  0  0  0  0  0  0  0  0  0  0
   -2.1018   -0.3237    0.3720 C   0  0  0  0  0  0  0  0  0  0  0  0
   -1.4989    0.6745    1.3338 C   0  0  0  0  0  0  0  0  0  0  0  0
   -0.8494   -0.9071   -0.3547 C   0  0  0  0  0  0  0  0  0  0  0  0
   -0.0443    1.0081    0.9873 C   0  0  0  0  0  0  0  0  0  0  0  0
    0.0627   -1.3446    0.7713 C   0  0  0  0  0  0  0  0  0  0  0  0
   -2.9118    0.2964   -0.6722 C   0  0  0  0  0  0  0  0  0  0  0  0
    2.0208   -0.1309    0.4045 C   0  0  0  0  0  0  0  0  0  0  0  0
    2.9839    0.9332    0.8483 C   0  0  0  0  0  0  0  0  0  0  0  0
   -2.7499   -0.0604   -2.0157 C   0  0  0  0  0  0  0  0  0  0  0  0
   -3.8423    1.2562   -0.3667 C   0  0  0  0  0  0  0  0  0  0  0  0
   -3.5976   -1.5333    1.9140 C   0  0  0  0  0  0  0  0  0  0  0  0
    4.2321    0.8462    0.0501 C   0  0  0  0  0  0  0  0  0  0  0  0
   -3.5309    0.5634   -2.9932 C   0  0  0  0  0  0  0  0  0  0  0  0
   -4.6350    1.8945   -1.3231 C   0  0  0  0  0  0  0  0  0  0  0  0
   -4.4542    1.5241   -2.6371 C   0  0  0  0  0  0  0  0  0  0  0  0
   -4.0224   -2.8910    2.4163 C   0  0  0  0  0  0  0  0  0  0  0  0
    4.3911    1.5080   -1.1623 C   0  0  0  0  0  0  0  0  0  0  0  0
    5.3217    0.1080    0.4964 C   0  0  0  0  0  0  0  0  0  0  0  0
    5.5696    1.4336   -1.8795 C   0  0  0  0  0  0  0  0  0  0  0  0
    6.4881    0.0274   -0.2035 C   0  0  0  0  0  0  0  0  0  0  0  0
    6.6364    0.6785   -1.3896 C   0  0  0  0  0  0  0  0  0  0  0  0
   -2.0351    1.6391    1.1933 H   0  0  0  0  0  0  0  0  0  0  0  0
   -1.5832    0.3822    2.3904 H   0  0  0  0  0  0  0  0  0  0  0  0
   -1.1533   -1.8473   -0.8658 H   0  0  0  0  0  0  0  0  0  0  0  0
   -0.4575   -0.1222   -0.9925 H   0  0  0  0  0  0  0  0  0  0  0  0
    0.0197    1.5329    0.0423 H   0  0  0  0  0  0  0  0  0  0  0  0
    0.2649    1.7554    1.7742 H   0  0  0  0  0  0  0  0  0  0  0  0
    0.7605   -2.1531    0.4821 H   0  0  0  0  0  0  0  0  0  0  0  0
   -0.5329   -1.7232    1.6382 H   0  0  0  0  0  0  0  0  0  0  0  0
    2.5197   -1.1186    0.5864 H   0  0  0  0  0  0  0  0  0  0  0  0
    1.7843   -0.0846   -0.6680 H   0  0  0  0  0  0  0  0  0  0  0  0
    2.5107    1.9285    0.6344 H   0  0  0  0  0  0  0  0  0  0  0  0
    3.2293    0.8056    1.9038 H   0  0  0  0  0  0  0  0  0  0  0  0
   -2.0426   -0.7945   -2.3153 H   0  0  0  0  0  0  0  0  0  0  0  0
   -3.9725    1.5433    0.6593 H   0  0  0  0  0  0  0  0  0  0  0  0
   -3.4389    0.3247   -4.0400 H   0  0  0  0  0  0  0  0  0  0  0  0
   -5.3528    2.6426   -1.0032 H   0  0  0  0  0  0  0  0  0  0  0  0
   -5.0571    2.0083   -3.3780 H   0  0  0  0  0  0  0  0  0  0  0  0
   -5.0945   -2.8166    2.6567 H   0  0  0  0  0  0  0  0  0  0  0  0
   -3.4176   -3.1211    3.3027 H   0  0  0  0  0  0  0  0  0  0  0  0
   -3.8603   -3.6200    1.6076 H   0  0  0  0  0  0  0  0  0  0  0  0
    3.5600    2.1043   -1.5709 H   0  0  0  0  0  0  0  0  0  0  0  0
    5.1886   -0.4114    1.4528 H   0  0  0  0  0  0  0  0  0  0  0  0
    5.7413    1.9257   -2.8337 H   0  0  0  0  0  0  0  0  0  0  0  0
    7.3231   -0.5670    0.1860 H   0  0  0  0  0  0  0  0  0  0  0  0
    7.5882    0.5976   -1.9353 H   0  0  0  0  0  0  0  0  0  0  0  0
  1  4  1  0
  1 14  1  0
  2 14  2  0
  3  7  1  0
  3  8  1  0
  3 10  1  0
  4  5  1  0
  4  6  1  0
  4  9  1  0
  5  7  1  0
  6  8  1  0
  9 12  2  0
  9 13  1  0
 10 11  1  0
 11 15  1  0
 12 16  1  0
 13 17  2  0
 14 19  1  0
 15 20  2  0
 15 21  1  0
 16 18  2  0
 17 18  1  0
 20 22  1  0
 21 23  2  0
 22 24  2  0
 23 24  1  0
  5 25  1  0
  5 26  1  0
  6 27  1  0
  6 28  1  0
  7 29  1  0
  7 30  1  0
  8 31  1  0
  8 32  1  0
 10 33  1  0
 10 34  1  0
 11 35  1  0
 11 36  1  0
 12 37  1  0
 13 38  1  0
 16 39  1  0
 17 40  1  0
 18 41  1  0
 19 42  1  0
 19 43  1  0
 19 44  1  0
 20 45  1  0
 21 46  1  0
 22 47  1  0
 23 48  1  0
 24 49  1  0
M  END

