46505249
     RDKit          3D

 10  9  0  0  0  0  0  0  0  0999 V2000
   -0.3068    1.5861   -0.0264 N   0  0  0  0  0  0  0  0  0  0  0  0
   -0.2223    0.3144    0.1127 C   0  0  0  0  0  0  0  0  0  0  0  0
    1.0690   -0.2249    0.3478 N   0  0  0  0  0  0  0  0  0  0  0  0
   -1.3916   -0.4528    0.0255 N   0  0  0  0  0  0  0  0  0  0  0  0
    1.9859   -0.0887   -0.6289 O   0  0  0  0  0  0  0  0  0  0  0  0
   -1.2358    2.0132   -0.1994 H   0  0  0  0  0  0  0  0  0  0  0  0
    1.3486   -0.7104    1.2107 H   0  0  0  0  0  0  0  0  0  0  0  0
   -1.7625   -0.6832   -0.9147 H   0  0  0  0  0  0  0  0  0  0  0  0
   -1.8672   -0.7775    0.8874 H   0  0  0  0  0  0  0  0  0  0  0  0
    2.3827   -0.9761   -0.8147 H   0  0  0  0  0  0  0  0  0  0  0  0
  1  2  2  3
  2  3  1  0
  3  5  1  0
  2  4  1  0
  1  6  1  0
  3  7  1  0
  4  8  1  0
  4  9  1  0
  5 10  1  0
M  END

