46505135
     RDKit          3D

 24 25  0  0  1  0  0  0  0  0999 V2000
   -1.6425    0.9169    0.4716 C   0  0  0  0  0  0  0  0  0  0  0  0
    0.9109    0.5943    0.2733 C   0  0  0  0  0  0  0  0  0  0  0  0
   -4.0558    0.7872    0.5253 C   0  0  0  0  0  0  0  0  0  0  0  0
    0.9968   -1.4798   -0.3672 C   0  0  0  0  0  0  0  0  0  0  0  0
   -2.8270    0.0085    0.2384 C   0  0  1  0  0  0  0  0  0  0  0  0
   -0.3938    0.1393    0.1842 C   0  0  0  0  0  0  0  0  0  0  0  0
    3.1622   -0.3355   -0.0997 C   0  0  0  0  0  0  0  0  0  0  0  0
   -2.8816   -0.5111   -1.0921 N   0  0  0  0  0  0  0  0  0  0  0  0
   -0.2880   -1.1409   -0.2132 N   0  0  0  0  0  0  0  0  0  0  0  0
    3.9024    0.6745   -0.5762 N   0  0  0  0  0  0  0  0  0  0  0  0
    4.0265   -1.2867    0.3468 N   0  0  0  0  0  0  0  0  0  0  0  0
    5.1706    0.3535   -0.4269 N   0  0  0  0  0  0  0  0  0  0  0  0
    5.2533   -0.8431    0.1362 N   0  0  0  0  0  0  0  0  0  0  0  0
    1.7446   -0.4036   -0.0656 N   0  0  0  0  0  0  0  0  0  0  0  0
   -4.9152    0.9054   -0.3063 O   0  0  0  0  0  0  0  0  0  0  0  0
   -1.7087    1.8423   -0.1083 H   0  0  0  0  0  0  0  0  0  0  0  0
   -1.6133    1.1840    1.5480 H   0  0  0  0  0  0  0  0  0  0  0  0
    1.1614    1.6157    0.5773 H   0  0  0  0  0  0  0  0  0  0  0  0
   -4.2221    1.2762    1.4932 H   0  0  0  0  0  0  0  0  0  0  0  0
    1.4077   -2.4519   -0.6818 H   0  0  0  0  0  0  0  0  0  0  0  0
   -2.7895   -0.8484    0.9414 H   0  0  0  0  0  0  0  0  0  0  0  0
   -3.8227   -0.4043   -1.5312 H   0  0  0  0  0  0  0  0  0  0  0  0
   -2.5724   -1.5084   -1.1513 H   0  0  0  0  0  0  0  0  0  0  0  0
    5.9961    0.9159   -0.6929 H   0  0  0  0  0  0  0  0  0  0  0  0
  1  5  1  0
  3  5  1  0
  1  6  1  0
  2  6  2  0
  5  8  1  0
  4  9  2  0
  6  9  1  0
  7 10  2  0
  7 11  1  0
 10 12  1  0
 11 13  2  0
 12 13  1  0
  2 14  1  0
  4 14  1  0
  7 14  1  0
  3 15  2  0
  1 16  1  0
  1 17  1  0
  2 18  1  0
  3 19  1  0
  4 20  1  0
  5 21  1  1
  8 22  1  0
  8 23  1  0
 12 24  1  0
M  END

