46505161
     RDKit          3D

 40 44  0  0  1  0  0  0  0  0999 V2000
    1.4488   -1.7839   -1.3854 O   0  0  0  0  0  0  0  0  0  0  0  0
    3.3809   -2.2810    0.4037 O   0  0  0  0  0  0  0  0  0  0  0  0
    2.6838    0.0740   -3.5257 O   0  0  0  0  0  0  0  0  0  0  0  0
   -2.4645    0.0973    1.0636 N   0  0  0  0  0  0  0  0  0  0  0  0
   -0.0562   -1.0338    0.1525 C   0  0  1  0  0  0  0  0  0  0  0  0
   -0.1247   -0.3342    1.5095 C   0  0  2  0  0  0  0  0  0  0  0  0
   -1.1986    0.7254    1.3882 C   0  0  1  0  0  0  0  0  0  0  0  0
    1.0487   -2.0468   -0.0040 C   0  0  2  0  0  0  0  0  0  0  0  0
   -1.3743   -1.6198   -0.2010 C   0  0  0  0  0  0  0  0  0  0  0  0
    0.3962    0.0718   -0.7238 C   0  0  0  0  0  0  0  0  0  0  0  0
   -0.8919    1.8222    0.4269 C   0  0  0  0  0  0  0  0  0  0  0  0
   -2.4168   -0.5543   -0.2317 C   0  0  0  0  0  0  0  0  0  0  0  0
    0.0117    1.3657   -0.6684 C   0  0  0  0  0  0  0  0  0  0  0  0
    2.1607   -1.8147    0.9473 C   0  0  2  0  0  0  0  0  0  0  0  0
    1.2189    0.3215    1.6264 C   0  0  0  0  0  0  0  0  0  0  0  0
    1.2703   -0.4103   -1.6335 C   0  0  0  0  0  0  0  0  0  0  0  0
    2.2811   -0.4035    1.3536 C   0  0  0  0  0  0  0  0  0  0  0  0
   -3.4827    1.1233    1.0951 C   0  0  0  0  0  0  0  0  0  0  0  0
    0.5125    2.2745   -1.5789 C   0  0  0  0  0  0  0  0  0  0  0  0
    1.7853    0.4819   -2.5568 C   0  0  0  0  0  0  0  0  0  0  0  0
    1.4152    1.8301   -2.5432 C   0  0  0  0  0  0  0  0  0  0  0  0
    3.9863   -2.4126    1.1634 H   0  0  0  0  0  0  0  0  0  0  0  0
    2.9685   -0.8923   -3.5593 H   0  0  0  0  0  0  0  0  0  0  0  0
   -0.2445   -1.0017    2.3524 H   0  0  0  0  0  0  0  0  0  0  0  0
   -1.3187    1.1657    2.4039 H   0  0  0  0  0  0  0  0  0  0  0  0
    0.6234   -3.0592    0.0274 H   0  0  0  0  0  0  0  0  0  0  0  0
   -1.6446   -2.3376    0.6081 H   0  0  0  0  0  0  0  0  0  0  0  0
   -1.3214   -2.1951   -1.1439 H   0  0  0  0  0  0  0  0  0  0  0  0
   -1.8492    2.2207    0.0281 H   0  0  0  0  0  0  0  0  0  0  0  0
   -0.4307    2.6823    0.9908 H   0  0  0  0  0  0  0  0  0  0  0  0
   -2.2632    0.1323   -1.0668 H   0  0  0  0  0  0  0  0  0  0  0  0
   -3.4095   -1.0534   -0.3622 H   0  0  0  0  0  0  0  0  0  0  0  0
    2.0001   -2.4889    1.8336 H   0  0  0  0  0  0  0  0  0  0  0  0
    1.3227    1.3611    1.9260 H   0  0  0  0  0  0  0  0  0  0  0  0
    3.2910    0.0102    1.4175 H   0  0  0  0  0  0  0  0  0  0  0  0
   -4.3704    0.6670    1.6015 H   0  0  0  0  0  0  0  0  0  0  0  0
   -3.1646    2.0329    1.6454 H   0  0  0  0  0  0  0  0  0  0  0  0
   -3.8395    1.4062    0.0758 H   0  0  0  0  0  0  0  0  0  0  0  0
    0.2478    3.3180   -1.5930 H   0  0  0  0  0  0  0  0  0  0  0  0
    1.8120    2.5391   -3.2632 H   0  0  0  0  0  0  0  0  0  0  0  0
  1  8  1  0
  1 16  1  0
 14  2  1  0
  3 20  1  0
  4  7  1  0
  4 12  1  0
  4 18  1  0
  5  6  1  0
  5  8  1  0
  5  9  1  6
  5 10  1  0
  6  7  1  0
  6 15  1  0
  7 11  1  0
  8 14  1  0
  9 12  1  0
 10 13  2  0
 10 16  1  0
 11 13  1  0
 13 19  1  0
 14 17  1  0
 15 17  2  0
 16 20  2  0
 19 21  2  0
 20 21  1  0
  2 22  1  0
  3 23  1  0
  6 24  1  1
  7 25  1  1
  8 26  1  6
  9 27  1  0
  9 28  1  0
 11 29  1  0
 11 30  1  0
 12 31  1  0
 12 32  1  0
 14 33  1  1
 15 34  1  0
 17 35  1  0
 18 36  1  0
 18 37  1  0
 18 38  1  0
 19 39  1  0
 21 40  1  0
M  END

