46504443
     RDKit          3D

 32 33  0  0  1  0  0  0  0  0999 V2000
   -2.2237    0.4069   -1.0247 O   0  0  0  0  0  0  0  0  0  0  0  0
    0.1759    1.9414    0.0082 O   0  0  0  0  0  0  0  0  0  0  0  0
   -4.7166    0.7037    1.5175 O   0  0  0  0  0  0  0  0  0  0  0  0
    4.0935    0.1087   -0.9523 O   0  0  0  0  0  0  0  0  0  0  0  0
   -0.7126   -0.6694    1.1243 N   0  0  0  0  0  0  0  0  0  0  0  0
    2.5426   -1.1868    0.0258 N   0  0  0  0  0  0  0  0  0  0  0  0
    2.1355    1.0727   -0.4874 N   0  0  0  0  0  0  0  0  0  0  0  0
    0.6653   -2.3869    1.1079 N   0  0  0  0  0  0  0  0  0  0  0  0
    0.4499   -0.2927    0.5615 C   0  0  0  0  0  0  0  0  0  0  0  0
   -1.8638    0.1721    1.2903 C   0  0  0  0  0  0  0  0  0  0  0  0
    1.3332   -1.3571    0.5395 C   0  0  0  0  0  0  0  0  0  0  0  0
   -2.8280    0.0546    0.1591 C   0  0  0  0  0  0  0  0  0  0  0  0
    0.9029    0.9072    0.0336 C   0  0  0  0  0  0  0  0  0  0  0  0
   -0.5563   -1.9666    1.4546 C   0  0  0  0  0  0  0  0  0  0  0  0
    2.9400   -0.0057   -0.4764 C   0  0  0  0  0  0  0  0  0  0  0  0
   -4.0230    0.9642    0.3510 C   0  0  0  0  0  0  0  0  0  0  0  0
    3.4493   -2.3144    0.0125 C   0  0  0  0  0  0  0  0  0  0  0  0
    2.5988    2.3330   -1.0377 C   0  0  0  0  0  0  0  0  0  0  0  0
   -2.3566   -0.2542   -1.7569 H   0  0  0  0  0  0  0  0  0  0  0  0
   -4.4199    1.3368    2.2354 H   0  0  0  0  0  0  0  0  0  0  0  0
   -2.3392   -0.0959    2.2780 H   0  0  0  0  0  0  0  0  0  0  0  0
   -1.5176    1.2201    1.4189 H   0  0  0  0  0  0  0  0  0  0  0  0
   -3.2031   -1.0012    0.1320 H   0  0  0  0  0  0  0  0  0  0  0  0
   -1.3433   -2.5450    1.9337 H   0  0  0  0  0  0  0  0  0  0  0  0
   -3.7665    2.0241    0.2046 H   0  0  0  0  0  0  0  0  0  0  0  0
   -4.7298    0.7109   -0.4931 H   0  0  0  0  0  0  0  0  0  0  0  0
    3.1194   -3.1306    0.6660 H   0  0  0  0  0  0  0  0  0  0  0  0
    3.6366   -2.6489   -1.0384 H   0  0  0  0  0  0  0  0  0  0  0  0
    4.4322   -1.9599    0.3953 H   0  0  0  0  0  0  0  0  0  0  0  0
    3.6273    2.4857   -0.6561 H   0  0  0  0  0  0  0  0  0  0  0  0
    1.9272    3.1584   -0.7349 H   0  0  0  0  0  0  0  0  0  0  0  0
    2.5706    2.2148   -2.1524 H   0  0  0  0  0  0  0  0  0  0  0  0
  1 12  1  0
  2 13  2  0
  3 16  1  0
  4 15  2  0
  5  9  1  0
  5 10  1  0
  5 14  1  0
  6 11  1  0
  6 15  1  0
  6 17  1  0
  7 13  1  0
  7 15  1  0
  7 18  1  0
  8 11  1  0
  8 14  2  0
  9 11  2  0
  9 13  1  0
 10 12  1  0
 12 16  1  0
  1 19  1  0
  3 20  1  0
 10 21  1  0
 10 22  1  0
 12 23  1  0
 14 24  1  0
 16 25  1  0
 16 26  1  0
 17 27  1  0
 17 28  1  0
 17 29  1  0
 18 30  1  0
 18 31  1  0
 18 32  1  0
M  END

