46507264
     RDKit          3D

 58 58  0  0  1  0  0  0  0  0999 V2000
    6.4411    0.8142   -0.6634 C   0  0  0  0  0  0  0  0  0  0  0  0
    6.2769   -0.5774   -0.1486 C   0  0  0  0  0  0  0  0  0  0  0  0
    4.8992   -1.0298    0.1645 C   0  0  0  0  0  0  0  0  0  0  0  0
    4.1509   -0.3920    1.1660 N   0  0  0  0  0  0  0  0  0  0  0  0
    3.6740    0.9222    1.1952 C   0  0  0  0  0  0  0  0  0  0  0  0
    3.8591    1.7281    0.2694 O   0  0  0  0  0  0  0  0  0  0  0  0
    2.8979    1.3892    2.4059 C   0  0  2  0  0  0  0  0  0  0  0  0
    1.7054    0.4713    2.5386 C   0  0  0  0  0  0  0  0  0  0  0  0
    2.5401    2.7091    2.3026 O   0  0  0  0  0  0  0  0  0  0  0  0
    0.8334    0.5088    1.3546 C   0  0  0  0  0  0  0  0  0  0  0  0
    1.0730    1.2441    0.3653 O   0  0  0  0  0  0  0  0  0  0  0  0
   -0.3210   -0.3116    1.3207 N   0  0  0  0  0  0  0  0  0  0  0  0
   -1.2263   -0.2925    0.1264 C   0  0  1  0  0  0  0  0  0  0  0  0
   -1.1659   -1.7090   -0.3582 C   0  0  1  0  0  0  0  0  0  0  0  0
   -1.9573   -2.0516   -1.5608 C   0  0  0  0  0  0  0  0  0  0  0  0
    0.2688   -2.1421   -0.6150 C   0  0  0  0  0  0  0  0  0  0  0  0
    0.9471   -1.3028   -1.6510 C   0  0  0  0  0  0  0  0  0  0  0  0
   -2.5500    0.1249    0.5959 C   0  0  0  0  0  0  0  0  0  0  0  0
   -2.7608    0.1928    1.8569 O   0  0  0  0  0  0  0  0  0  0  0  0
   -3.6487    0.4744   -0.2064 N   0  0  0  0  0  0  0  0  0  0  0  0
   -3.7201    0.5364   -1.6450 C   0  0  0  0  0  0  0  0  0  0  0  0
   -4.6333    1.7410   -1.9396 C   0  0  0  0  0  0  0  0  0  0  0  0
   -5.2038    2.1269   -0.5930 C   0  0  0  0  0  0  0  0  0  0  0  0
   -5.0007    0.8682    0.2144 C   0  0  1  0  0  0  0  0  0  0  0  0
   -5.9874   -0.1676   -0.0498 C   0  0  0  0  0  0  0  0  0  0  0  0
   -5.6539   -1.2521   -0.5748 O   0  0  0  0  0  0  0  0  0  0  0  0
   -7.3130    0.0335    0.2774 O   0  0  0  0  0  0  0  0  0  0  0  0
    6.4629    1.5958    0.1133 H   0  0  0  0  0  0  0  0  0  0  0  0
    7.4635    0.8820   -1.1771 H   0  0  0  0  0  0  0  0  0  0  0  0
    5.7043    1.0557   -1.4466 H   0  0  0  0  0  0  0  0  0  0  0  0
    6.9021   -0.7083    0.8040 H   0  0  0  0  0  0  0  0  0  0  0  0
    6.7412   -1.3056   -0.8846 H   0  0  0  0  0  0  0  0  0  0  0  0
    4.3321   -0.9953   -0.8318 H   0  0  0  0  0  0  0  0  0  0  0  0
    4.9064   -2.1505    0.3751 H   0  0  0  0  0  0  0  0  0  0  0  0
    3.9091   -0.9962    2.0423 H   0  0  0  0  0  0  0  0  0  0  0  0
    3.5469    1.2255    3.2842 H   0  0  0  0  0  0  0  0  0  0  0  0
    2.0588   -0.5457    2.7270 H   0  0  0  0  0  0  0  0  0  0  0  0
    1.1478    0.8325    3.4457 H   0  0  0  0  0  0  0  0  0  0  0  0
    3.1860    3.2785    1.8492 H   0  0  0  0  0  0  0  0  0  0  0  0
   -0.6131   -0.9486    2.0696 H   0  0  0  0  0  0  0  0  0  0  0  0
   -0.8532    0.3895   -0.6266 H   0  0  0  0  0  0  0  0  0  0  0  0
   -1.5165   -2.3500    0.4918 H   0  0  0  0  0  0  0  0  0  0  0  0
   -1.6282   -3.0797   -1.9348 H   0  0  0  0  0  0  0  0  0  0  0  0
   -1.7857   -1.4032   -2.4306 H   0  0  0  0  0  0  0  0  0  0  0  0
   -3.0359   -2.2315   -1.3224 H   0  0  0  0  0  0  0  0  0  0  0  0
    0.8444   -2.2197    0.3346 H   0  0  0  0  0  0  0  0  0  0  0  0
    0.2004   -3.1837   -1.0042 H   0  0  0  0  0  0  0  0  0  0  0  0
    0.2714   -0.5207   -2.0515 H   0  0  0  0  0  0  0  0  0  0  0  0
    1.2780   -1.9277   -2.5280 H   0  0  0  0  0  0  0  0  0  0  0  0
    1.8669   -0.8151   -1.2645 H   0  0  0  0  0  0  0  0  0  0  0  0
   -4.1908   -0.3172   -2.1309 H   0  0  0  0  0  0  0  0  0  0  0  0
   -2.6872    0.7679   -2.0034 H   0  0  0  0  0  0  0  0  0  0  0  0
   -3.9792    2.5941   -2.2576 H   0  0  0  0  0  0  0  0  0  0  0  0
   -5.4046    1.5008   -2.6736 H   0  0  0  0  0  0  0  0  0  0  0  0
   -4.7258    3.0065   -0.1483 H   0  0  0  0  0  0  0  0  0  0  0  0
   -6.3011    2.2717   -0.7487 H   0  0  0  0  0  0  0  0  0  0  0  0
   -4.9049    1.1358    1.2901 H   0  0  0  0  0  0  0  0  0  0  0  0
   -7.6207    0.5058    1.1324 H   0  0  0  0  0  0  0  0  0  0  0  0
  1  2  1  0
  2  3  1  0
  3  4  1  0
  4  5  1  0
  5  6  2  0
  5  7  1  0
  7  8  1  0
  7  9  1  0
  8 10  1  0
 10 11  2  0
 10 12  1  0
 13 12  1  0
 13 14  1  0
 13 18  1  0
 14 15  1  0
 14 16  1  0
 16 17  1  0
 18 19  2  0
 18 20  1  0
 20 21  1  0
 20 24  1  0
 21 22  1  0
 22 23  1  0
 23 24  1  0
 24 25  1  0
 25 26  2  0
 25 27  1  0
  1 28  1  0
  1 29  1  0
  1 30  1  0
  2 31  1  0
  2 32  1  0
  3 33  1  0
  3 34  1  0
  4 35  1  0
  7 36  1  1
  8 37  1  0
  8 38  1  0
  9 39  1  0
 12 40  1  0
 13 41  1  6
 14 42  1  1
 15 43  1  0
 15 44  1  0
 15 45  1  0
 16 46  1  0
 16 47  1  0
 17 48  1  0
 17 49  1  0
 17 50  1  0
 21 51  1  0
 21 52  1  0
 22 53  1  0
 22 54  1  0
 23 55  1  0
 23 56  1  0
 24 57  1  1
 27 58  1  0
M  END

