46508504
     RDKit          3D

103105  0  0  1  0  0  0  0  0999 V2000
   -2.2059   -1.8728   -5.8595 C   0  0  0  0  0  0  0  0  0  0  0  0
   -0.3930   -0.5165    1.8207 C   0  0  0  0  0  0  0  0  0  0  0  0
   -2.3467   -1.8325   -4.4718 O   0  0  0  0  0  0  0  0  0  0  0  0
   -2.9298   -0.8098   -3.7757 C   0  0  0  0  0  0  0  0  0  0  0  0
   -3.3769    0.1807   -4.4519 O   0  0  0  0  0  0  0  0  0  0  0  0
   -2.6758    0.7315   -0.6258 C   0  0  0  0  0  0  0  0  0  0  0  0
   -1.4797    0.8704   -1.0647 O   0  0  0  0  0  0  0  0  0  0  0  0
   -3.0429   -0.8304   -2.3730 N   0  0  0  0  0  0  0  0  0  0  0  0
   -2.8471    1.1001    0.7329 N   0  0  0  0  0  0  0  0  0  0  0  0
    1.2041   -0.8638    0.1747 N   0  0  0  0  0  0  0  0  0  0  0  0
    2.7784   -4.2336    0.4513 N   0  0  0  0  0  0  0  0  0  0  0  0
    6.0095   -5.8689    1.2942 C   0  0  0  0  0  0  0  0  0  0  0  0
    4.6182   -5.6129    1.2925 O   0  0  0  0  0  0  0  0  0  0  0  0
    4.1491   -4.5546    0.5111 C   0  0  0  0  0  0  0  0  0  0  0  0
    4.9844   -3.8928   -0.1402 O   0  0  0  0  0  0  0  0  0  0  0  0
    1.7603   -2.1247    0.5098 C   0  0  0  0  0  0  0  0  0  0  0  0
    1.7124   -2.3791    1.7801 O   0  0  0  0  0  0  0  0  0  0  0  0
   -1.2331    0.5309    2.4995 C   0  0  1  0  0  0  0  0  0  0  0  0
   -3.6500    0.2227   -1.5681 C   0  0  1  0  0  0  0  0  0  0  0  0
    2.3518   -3.1005   -0.3962 C   0  0  2  0  0  0  0  0  0  0  0  0
   -1.7799    1.5956    1.5797 C   0  0  2  0  0  0  0  0  0  0  0  0
   -2.2043   -0.0519    3.2854 O   0  0  0  0  0  0  0  0  0  0  0  0
   -2.0749    2.8745    2.2708 C   0  0  0  0  0  0  0  0  0  0  0  0
   -3.2170    2.8660    3.1757 C   0  0  0  0  0  0  0  0  0  0  0  0
   -4.4695    3.1764    2.7021 C   0  0  0  0  0  0  0  0  0  0  0  0
   -3.1400    2.5660    4.5217 C   0  0  0  0  0  0  0  0  0  0  0  0
   -4.2439    2.5740    5.3468 C   0  0  0  0  0  0  0  0  0  0  0  0
   -5.5076    2.8953    4.8302 C   0  0  0  0  0  0  0  0  0  0  0  0
   -5.5953    3.1927    3.5058 C   0  0  0  0  0  0  0  0  0  0  0  0
    0.6585    0.0698    1.0311 N   0  0  0  0  0  0  0  0  0  0  0  0
    1.6718    0.6335    1.8584 C   0  0  0  0  0  0  0  0  0  0  0  0
    2.6609    1.4852    1.1568 C   0  0  0  0  0  0  0  0  0  0  0  0
    4.3598    1.9732   -0.4817 C   0  0  0  0  0  0  0  0  0  0  0  0
    3.4594    1.0949    0.1241 C   0  0  0  0  0  0  0  0  0  0  0  0
    2.7623    2.7854    1.5984 C   0  0  0  0  0  0  0  0  0  0  0  0
    3.6525    3.6431    0.9959 C   0  0  0  0  0  0  0  0  0  0  0  0
    4.4647    3.2794   -0.0416 C   0  0  0  0  0  0  0  0  0  0  0  0
    5.3754    4.2297   -0.6501 C   0  0  0  0  0  0  0  0  0  0  0  0
    6.4689    6.3822   -0.8940 C   0  0  0  0  0  0  0  0  0  0  0  0
    5.5659    5.5209   -0.2550 C   0  0  0  0  0  0  0  0  0  0  0  0
    6.9957    4.6139   -2.3533 C   0  0  0  0  0  0  0  0  0  0  0  0
    7.2034    5.9384   -1.9612 C   0  0  0  0  0  0  0  0  0  0  0  0
    6.1234    3.8127   -1.7207 N   0  0  0  0  0  0  0  0  0  0  0  0
    1.5253   -3.6189   -1.5188 C   0  0  0  0  0  0  0  0  0  0  0  0
   -4.9123   -0.3281   -0.9503 C   0  0  0  0  0  0  0  0  0  0  0  0
   -5.7898   -0.8790   -2.0873 C   0  0  0  0  0  0  0  0  0  0  0  0
   -4.6925   -1.3102    0.1422 C   0  0  0  0  0  0  0  0  0  0  0  0
   -5.7518    0.8365   -0.3971 C   0  0  0  0  0  0  0  0  0  0  0  0
    1.0147   -2.6209   -2.4982 C   0  0  0  0  0  0  0  0  0  0  0  0
    2.4091   -4.6010   -2.3236 C   0  0  0  0  0  0  0  0  0  0  0  0
    0.3476   -4.4558   -1.0544 C   0  0  0  0  0  0  0  0  0  0  0  0
   -1.4018   -2.5430   -6.2116 H   0  0  0  0  0  0  0  0  0  0  0  0
   -3.1703   -2.1617   -6.3355 H   0  0  0  0  0  0  0  0  0  0  0  0
   -1.9754   -0.8590   -6.2956 H   0  0  0  0  0  0  0  0  0  0  0  0
   -0.9471   -1.2322    1.2256 H   0  0  0  0  0  0  0  0  0  0  0  0
    0.1108   -1.1240    2.6296 H   0  0  0  0  0  0  0  0  0  0  0  0
   -2.6705   -1.6555   -1.8359 H   0  0  0  0  0  0  0  0  0  0  0  0
   -3.7890    1.0001    1.1397 H   0  0  0  0  0  0  0  0  0  0  0  0
    1.2001   -0.5898   -0.8630 H   0  0  0  0  0  0  0  0  0  0  0  0
    2.1042   -4.8012    1.0024 H   0  0  0  0  0  0  0  0  0  0  0  0
    6.2619   -6.1951    0.2671 H   0  0  0  0  0  0  0  0  0  0  0  0
    6.2796   -6.6795    1.9699 H   0  0  0  0  0  0  0  0  0  0  0  0
    6.5903   -4.9517    1.5913 H   0  0  0  0  0  0  0  0  0  0  0  0
   -0.5630    1.0665    3.2125 H   0  0  0  0  0  0  0  0  0  0  0  0
   -3.9387    1.0087   -2.3353 H   0  0  0  0  0  0  0  0  0  0  0  0
    3.3061   -2.7092   -0.8716 H   0  0  0  0  0  0  0  0  0  0  0  0
   -0.9238    1.7920    0.8592 H   0  0  0  0  0  0  0  0  0  0  0  0
   -2.0904   -1.0033    3.4813 H   0  0  0  0  0  0  0  0  0  0  0  0
   -2.1416    3.7194    1.5345 H   0  0  0  0  0  0  0  0  0  0  0  0
   -1.1614    3.1506    2.8786 H   0  0  0  0  0  0  0  0  0  0  0  0
   -4.5933    3.4183    1.6671 H   0  0  0  0  0  0  0  0  0  0  0  0
   -2.1902    2.3183    4.9533 H   0  0  0  0  0  0  0  0  0  0  0  0
   -4.1650    2.3345    6.3988 H   0  0  0  0  0  0  0  0  0  0  0  0
   -6.3764    2.8982    5.4968 H   0  0  0  0  0  0  0  0  0  0  0  0
   -6.5494    3.4477    3.0589 H   0  0  0  0  0  0  0  0  0  0  0  0
    1.3227    1.1541    2.7673 H   0  0  0  0  0  0  0  0  0  0  0  0
    2.3275   -0.2029    2.2994 H   0  0  0  0  0  0  0  0  0  0  0  0
    4.9937    1.6651   -1.3000 H   0  0  0  0  0  0  0  0  0  0  0  0
    3.4094    0.0779   -0.2447 H   0  0  0  0  0  0  0  0  0  0  0  0
    2.1482    3.1574    2.4291 H   0  0  0  0  0  0  0  0  0  0  0  0
    3.7137    4.6771    1.3712 H   0  0  0  0  0  0  0  0  0  0  0  0
    6.6019    7.3998   -0.5636 H   0  0  0  0  0  0  0  0  0  0  0  0
    4.9918    5.8922    0.5944 H   0  0  0  0  0  0  0  0  0  0  0  0
    7.5911    4.2826   -3.2046 H   0  0  0  0  0  0  0  0  0  0  0  0
    7.9163    6.5555   -2.4976 H   0  0  0  0  0  0  0  0  0  0  0  0
   -5.4354   -1.8623   -2.4302 H   0  0  0  0  0  0  0  0  0  0  0  0
   -6.8400   -0.8786   -1.7070 H   0  0  0  0  0  0  0  0  0  0  0  0
   -5.7539   -0.1556   -2.9247 H   0  0  0  0  0  0  0  0  0  0  0  0
   -3.6079   -1.2691    0.4134 H   0  0  0  0  0  0  0  0  0  0  0  0
   -5.2261   -0.9723    1.0536 H   0  0  0  0  0  0  0  0  0  0  0  0
   -5.0219   -2.3294   -0.1619 H   0  0  0  0  0  0  0  0  0  0  0  0
   -6.6663    0.9912   -1.0549 H   0  0  0  0  0  0  0  0  0  0  0  0
   -5.1984    1.7889   -0.5176 H   0  0  0  0  0  0  0  0  0  0  0  0
   -6.0637    0.6763    0.6324 H   0  0  0  0  0  0  0  0  0  0  0  0
    1.7979   -1.8612   -2.7412 H   0  0  0  0  0  0  0  0  0  0  0  0
    0.0523   -2.2081   -2.1806 H   0  0  0  0  0  0  0  0  0  0  0  0
    0.8789   -3.1557   -3.4960 H   0  0  0  0  0  0  0  0  0  0  0  0
    3.4316   -4.1370   -2.3897 H   0  0  0  0  0  0  0  0  0  0  0  0
    2.5174   -5.5600   -1.8100 H   0  0  0  0  0  0  0  0  0  0  0  0
    2.0590   -4.6856   -3.3701 H   0  0  0  0  0  0  0  0  0  0  0  0
   -0.0355   -4.0505   -0.1059 H   0  0  0  0  0  0  0  0  0  0  0  0
    0.6331   -5.5201   -0.9295 H   0  0  0  0  0  0  0  0  0  0  0  0
   -0.4709   -4.4357   -1.8265 H   0  0  0  0  0  0  0  0  0  0  0  0
  1  3  1  0
  3  4  1  0
  4  8  1  0
  8 19  1  0
  6 19  1  0
  6  9  1  0
  9 21  1  0
 18 21  1  0
  2 18  1  0
  2 30  1  0
 10 30  1  0
 10 16  1  0
 16 20  1  0
  4  5  2  0
  6  7  2  0
 11 20  1  0
 11 14  1  0
 13 14  1  0
 12 13  1  0
 14 15  2  0
 16 17  2  0
 18 22  1  0
 21 23  1  0
 23 24  1  0
 24 25  2  0
 24 26  1  0
 25 29  1  0
 26 27  2  0
 27 28  1  0
 28 29  2  0
 30 31  1  0
 31 32  1  0
 32 34  1  0
 32 35  2  0
 33 34  2  0
 33 37  1  0
 35 36  1  0
 36 37  2  0
 37 38  1  0
 38 40  1  0
 38 43  2  0
 39 40  2  0
 39 42  1  0
 41 43  1  0
 41 42  2  0
 20 44  1  0
 19 45  1  0
 45 46  1  0
 45 47  1  0
 45 48  1  0
 44 49  1  0
 44 50  1  0
 44 51  1  0
  1 52  1  0
  1 53  1  0
  1 54  1  0
  2 55  1  0
  2 56  1  0
  8 57  1  0
  9 58  1  0
 10 59  1  0
 11 60  1  0
 12 61  1  0
 12 62  1  0
 12 63  1  0
 18 64  1  1
 19 65  1  6
 20 66  1  6
 21 67  1  6
 22 68  1  0
 23 69  1  0
 23 70  1  0
 25 71  1  0
 26 72  1  0
 27 73  1  0
 28 74  1  0
 29 75  1  0
 31 76  1  0
 31 77  1  0
 33 78  1  0
 34 79  1  0
 35 80  1  0
 36 81  1  0
 39 82  1  0
 40 83  1  0
 41 84  1  0
 42 85  1  0
 46 86  1  0
 46 87  1  0
 46 88  1  0
 47 89  1  0
 47 90  1  0
 47 91  1  0
 48 92  1  0
 48 93  1  0
 48 94  1  0
 49 95  1  0
 49 96  1  0
 49 97  1  0
 50 98  1  0
 50 99  1  0
 50100  1  0
 51101  1  0
 51102  1  0
 51103  1  0
M  END

