46505761
     RDKit          3D

 16 15  0  0  0  0  0  0  0  0999 V2000
    3.0080    0.0656   -0.1738 C   0  0  0  0  0  0  0  0  0  0  0  0
    1.7139   -0.5354    0.2451 C   0  0  0  0  0  0  0  0  0  0  0  0
    0.6020    0.3083   -0.0914 O   0  0  0  0  0  0  0  0  0  0  0  0
   -0.6794   -0.0659    0.2102 C   0  0  0  0  0  0  0  0  0  0  0  0
   -0.8431   -1.1780    0.7937 O   0  0  0  0  0  0  0  0  0  0  0  0
   -1.8280    0.6960   -0.0814 N   0  0  0  0  0  0  0  0  0  0  0  0
   -3.1602    0.2644    0.2540 C   0  0  0  0  0  0  0  0  0  0  0  0
    3.1333   -0.0023   -1.2881 H   0  0  0  0  0  0  0  0  0  0  0  0
    3.8283   -0.5086    0.2850 H   0  0  0  0  0  0  0  0  0  0  0  0
    3.1151    1.1320    0.0731 H   0  0  0  0  0  0  0  0  0  0  0  0
    1.7291   -0.7587    1.3291 H   0  0  0  0  0  0  0  0  0  0  0  0
    1.5879   -1.5156   -0.2694 H   0  0  0  0  0  0  0  0  0  0  0  0
   -1.6881    1.6116   -0.5622 H   0  0  0  0  0  0  0  0  0  0  0  0
   -3.1111   -0.6749    0.8364 H   0  0  0  0  0  0  0  0  0  0  0  0
   -3.7626    0.0830   -0.6553 H   0  0  0  0  0  0  0  0  0  0  0  0
   -3.6452    1.0787    0.8318 H   0  0  0  0  0  0  0  0  0  0  0  0
  1  2  1  0
  2  3  1  0
  3  4  1  0
  4  5  2  0
  4  6  1  0
  6  7  1  0
  1  8  1  0
  1  9  1  0
  1 10  1  0
  2 11  1  0
  2 12  1  0
  6 13  1  0
  7 14  1  0
  7 15  1  0
  7 16  1  0
M  END

