46507789
     RDKit          3D

 22 21  0  0  1  0  0  0  0  0999 V2000
    2.2998    0.9626   -0.1086 C   0  0  0  0  0  0  0  0  0  0  0  0
    1.1380   -0.0362   -0.3819 C   0  0  0  0  0  0  0  0  0  0  0  0
    1.3760   -1.1910    0.5519 C   0  0  0  0  0  0  0  0  0  0  0  0
   -0.1455    0.6961   -0.1979 C   0  0  0  0  0  0  0  0  0  0  0  0
   -1.4153   -0.0170   -0.4302 C   0  0  1  0  0  0  0  0  0  0  0  0
   -1.7076   -1.1888    0.4259 C   0  0  0  0  0  0  0  0  0  0  0  0
   -2.4982    0.9600   -0.2726 N   0  0  0  0  0  0  0  0  0  0  0  0
    3.1787    0.3976    0.2641 H   0  0  0  0  0  0  0  0  0  0  0  0
    1.9743    1.7314    0.6088 H   0  0  0  0  0  0  0  0  0  0  0  0
    2.5674    1.4777   -1.0593 H   0  0  0  0  0  0  0  0  0  0  0  0
    1.2481   -0.3950   -1.4276 H   0  0  0  0  0  0  0  0  0  0  0  0
    2.4366   -1.1793    0.9422 H   0  0  0  0  0  0  0  0  0  0  0  0
    1.1997   -2.1518    0.0260 H   0  0  0  0  0  0  0  0  0  0  0  0
    0.6731   -1.1290    1.3966 H   0  0  0  0  0  0  0  0  0  0  0  0
   -0.1061    1.6257   -0.8603 H   0  0  0  0  0  0  0  0  0  0  0  0
   -0.1316    1.1723    0.8387 H   0  0  0  0  0  0  0  0  0  0  0  0
   -1.4373   -0.2885   -1.5292 H   0  0  0  0  0  0  0  0  0  0  0  0
   -2.8002   -1.4652    0.2856 H   0  0  0  0  0  0  0  0  0  0  0  0
   -1.6275   -0.9125    1.4980 H   0  0  0  0  0  0  0  0  0  0  0  0
   -1.1095   -2.0688    0.1457 H   0  0  0  0  0  0  0  0  0  0  0  0
   -2.8299    1.3364   -1.1685 H   0  0  0  0  0  0  0  0  0  0  0  0
   -2.2831    1.6634    0.4526 H   0  0  0  0  0  0  0  0  0  0  0  0
  1  2  1  0
  2  3  1  0
  2  4  1  0
  4  5  1  0
  5  6  1  0
  5  7  1  0
  1  8  1  0
  1  9  1  0
  1 10  1  0
  2 11  1  0
  3 12  1  0
  3 13  1  0
  3 14  1  0
  4 15  1  0
  4 16  1  0
  5 17  1  6
  6 18  1  0
  6 19  1  0
  6 20  1  0
  7 21  1  0
  7 22  1  0
M  END

