46507971
     RDKit          3D

 14 14  0  0  0  0  0  0  0  0999 V2000
    2.3258    0.0307    0.0502 N   0  0  0  0  0  0  0  0  0  0  0  0
    0.8978   -0.0003    0.0198 C   0  0  0  0  0  0  0  0  0  0  0  0
    0.2098   -1.1945    0.0036 C   0  0  0  0  0  0  0  0  0  0  0  0
   -1.1656   -1.2111   -0.0256 C   0  0  0  0  0  0  0  0  0  0  0  0
   -1.9080   -0.0417   -0.0398 C   0  0  0  0  0  0  0  0  0  0  0  0
   -1.2244    1.1570   -0.0237 C   0  0  0  0  0  0  0  0  0  0  0  0
    0.1503    1.1538    0.0055 C   0  0  0  0  0  0  0  0  0  0  0  0
    0.8274    2.3522    0.0214 F   0  0  0  0  0  0  0  0  0  0  0  0
    2.8335   -0.6228   -0.5770 H   0  0  0  0  0  0  0  0  0  0  0  0
    2.7792    0.6939    0.6870 H   0  0  0  0  0  0  0  0  0  0  0  0
    0.7700   -2.1386    0.0143 H   0  0  0  0  0  0  0  0  0  0  0  0
   -1.7074   -2.1675   -0.0383 H   0  0  0  0  0  0  0  0  0  0  0  0
   -2.9880   -0.1050   -0.0627 H   0  0  0  0  0  0  0  0  0  0  0  0
   -1.8004    2.0939   -0.0347 H   0  0  0  0  0  0  0  0  0  0  0  0
  1  2  1  0
  2  3  2  0
  3  4  1  0
  4  5  2  0
  5  6  1  0
  6  7  2  0
  2  7  1  0
  7  8  1  0
  1  9  1  0
  1 10  1  0
  3 11  1  0
  4 12  1  0
  5 13  1  0
  6 14  1  0
M  END

