46506199
     RDKit          3D

 34 35  0  0  1  0  0  0  0  0999 V2000
   -3.2595    1.3117   -0.9100 C   0  0  0  0  0  0  0  0  0  0  0  0
   -2.8664   -0.0831    1.0563 C   0  0  0  0  0  0  0  0  0  0  0  0
   -4.5285    0.9895   -0.9388 C   0  0  0  0  0  0  0  0  0  0  0  0
   -4.1383   -0.4159    1.0402 C   0  0  0  0  0  0  0  0  0  0  0  0
    3.3411   -1.1923   -0.8699 C   0  0  0  0  0  0  0  0  0  0  0  0
    3.9579   -2.2414   -0.0203 C   0  0  0  0  0  0  0  0  0  0  0  0
   -1.2564    0.0230   -0.7137 C   0  0  0  0  0  0  0  0  0  0  0  0
    2.9392    1.1749    1.1689 C   0  0  0  0  0  0  0  0  0  0  0  0
   -2.2871    0.8263    0.0700 C   0  0  0  0  0  0  0  0  0  0  0  0
   -5.0672    0.0847    0.0544 C   0  0  0  0  0  0  0  0  0  0  0  0
   -0.1701   -0.5502    0.1648 C   0  0  1  0  0  0  0  0  0  0  0  0
    1.8307    0.3112    0.6027 C   0  0  0  0  0  0  0  0  0  0  0  0
    0.8186   -1.3209   -0.6205 C   0  0  0  0  0  0  0  0  0  0  0  0
    3.6235    1.8509    0.0935 N   0  0  0  0  0  0  0  0  0  0  0  0
    0.5860    0.4103    0.8619 N   0  0  0  0  0  0  0  0  0  0  0  0
    2.0762   -0.7433   -0.3150 N   0  0  0  0  0  0  0  0  0  0  0  0
    5.0177   -2.7677   -0.2827 O   0  0  0  0  0  0  0  0  0  0  0  0
   -6.2875   -0.2291    0.0313 O   0  0  0  0  0  0  0  0  0  0  0  0
    0.6469   -2.2891   -1.4069 O   0  0  0  0  0  0  0  0  0  0  0  0
   -2.9164    2.0174   -1.7114 H   0  0  0  0  0  0  0  0  0  0  0  0
   -2.2410   -0.5209    1.8602 H   0  0  0  0  0  0  0  0  0  0  0  0
   -5.1995    1.3940   -1.7065 H   0  0  0  0  0  0  0  0  0  0  0  0
   -4.5298   -1.0968    1.7929 H   0  0  0  0  0  0  0  0  0  0  0  0
    4.0393   -0.3079   -0.8179 H   0  0  0  0  0  0  0  0  0  0  0  0
    3.1899   -1.5081   -1.9165 H   0  0  0  0  0  0  0  0  0  0  0  0
    3.4391   -2.5517    0.8745 H   0  0  0  0  0  0  0  0  0  0  0  0
   -1.7375   -0.8305   -1.2304 H   0  0  0  0  0  0  0  0  0  0  0  0
   -0.7708    0.6410   -1.4949 H   0  0  0  0  0  0  0  0  0  0  0  0
    2.4948    1.9566    1.8315 H   0  0  0  0  0  0  0  0  0  0  0  0
    3.6461    0.5541    1.7509 H   0  0  0  0  0  0  0  0  0  0  0  0
   -1.7834    1.7078    0.5608 H   0  0  0  0  0  0  0  0  0  0  0  0
   -0.6144   -1.2552    0.9311 H   0  0  0  0  0  0  0  0  0  0  0  0
    4.6604    1.7851    0.1800 H   0  0  0  0  0  0  0  0  0  0  0  0
    3.3466    2.8660    0.0294 H   0  0  0  0  0  0  0  0  0  0  0  0
  1  3  2  0
  2  4  2  0
  5  6  1  0
  1  9  1  0
  2  9  1  0
  7  9  1  0
  3 10  1  0
  4 10  1  0
 11  7  1  0
  8 12  1  0
 11 13  1  0
  8 14  1  0
 11 15  1  0
 12 15  2  0
  5 16  1  0
 12 16  1  0
 13 16  1  0
  6 17  2  0
 10 18  2  0
 13 19  2  0
  1 20  1  0
  2 21  1  0
  3 22  1  0
  4 23  1  0
  5 24  1  0
  5 25  1  0
  6 26  1  0
  7 27  1  0
  7 28  1  0
  8 29  1  0
  8 30  1  0
  9 31  1  0
 11 32  1  1
 14 33  1  0
 14 34  1  0
M  END

