46506734
     RDKit          3D

 54 55  0  0  0  0  0  0  0  0999 V2000
    3.8372    0.2104    2.1131 O   0  0  0  0  0  0  0  0  0  0  0  0
   -0.7904   -2.6614    1.6711 O   0  0  0  0  0  0  0  0  0  0  0  0
    2.9910   -0.0389   -0.1107 N   0  0  0  0  0  0  0  0  0  0  0  0
   -1.8377   -0.6973    1.1131 N   0  0  0  0  0  0  0  0  0  0  0  0
   -4.5831    0.3885    0.1152 N   0  0  0  0  0  0  0  0  0  0  0  0
    0.8029   -0.8914   -0.5791 C   0  0  0  0  0  0  0  0  0  0  0  0
    0.6024   -1.0241    0.7947 C   0  0  0  0  0  0  0  0  0  0  0  0
    2.0225   -0.3906   -0.9815 C   0  0  0  0  0  0  0  0  0  0  0  0
    2.8325   -0.1546    1.2310 C   0  0  0  0  0  0  0  0  0  0  0  0
    1.6092   -0.6579    1.6577 C   0  0  0  0  0  0  0  0  0  0  0  0
   -0.6846   -1.5058    1.2114 C   0  0  0  0  0  0  0  0  0  0  0  0
   -0.1878   -1.2690   -1.4559 C   0  0  0  0  0  0  0  0  0  0  0  0
    2.2249   -0.2762   -2.3571 C   0  0  0  0  0  0  0  0  0  0  0  0
    0.0244   -1.1507   -2.8360 C   0  0  0  0  0  0  0  0  0  0  0  0
    1.2421   -0.6515   -3.2313 C   0  0  0  0  0  0  0  0  0  0  0  0
   -3.1507   -1.1424    1.4862 C   0  0  0  0  0  0  0  0  0  0  0  0
    5.0752    0.7206    1.7083 C   0  0  0  0  0  0  0  0  0  0  0  0
   -4.2478   -0.1665    1.3541 C   0  0  0  0  0  0  0  0  0  0  0  0
    5.8732   -0.1963    0.8259 C   0  0  0  0  0  0  0  0  0  0  0  0
   -3.6901    1.2668   -0.5396 C   0  0  0  0  0  0  0  0  0  0  0  0
   -5.4170   -0.4170   -0.7236 C   0  0  0  0  0  0  0  0  0  0  0  0
    7.1728    0.5004    0.4816 C   0  0  0  0  0  0  0  0  0  0  0  0
   -6.7962   -0.4873   -0.1175 C   0  0  0  0  0  0  0  0  0  0  0  0
   -4.4387    2.0028   -1.6536 C   0  0  0  0  0  0  0  0  0  0  0  0
    6.8664    1.7687   -0.2419 C   0  0  0  0  0  0  0  0  0  0  0  0
   -1.7042    0.2676    0.7711 H   0  0  0  0  0  0  0  0  0  0  0  0
    1.4539   -0.7656    2.7285 H   0  0  0  0  0  0  0  0  0  0  0  0
   -1.1623   -1.6609   -1.1327 H   0  0  0  0  0  0  0  0  0  0  0  0
    3.1852    0.1181   -2.6772 H   0  0  0  0  0  0  0  0  0  0  0  0
   -0.7515   -1.4458   -3.4897 H   0  0  0  0  0  0  0  0  0  0  0  0
    1.4347   -0.5478   -4.2858 H   0  0  0  0  0  0  0  0  0  0  0  0
   -3.3157   -2.1192    0.9660 H   0  0  0  0  0  0  0  0  0  0  0  0
   -3.0951   -1.4096    2.5900 H   0  0  0  0  0  0  0  0  0  0  0  0
    5.6916    0.9217    2.6178 H   0  0  0  0  0  0  0  0  0  0  0  0
    4.9243    1.7206    1.2198 H   0  0  0  0  0  0  0  0  0  0  0  0
   -5.2174   -0.5599    1.8078 H   0  0  0  0  0  0  0  0  0  0  0  0
   -4.0113    0.6888    2.0714 H   0  0  0  0  0  0  0  0  0  0  0  0
    5.3134   -0.3847   -0.1120 H   0  0  0  0  0  0  0  0  0  0  0  0
    6.1099   -1.1684    1.2816 H   0  0  0  0  0  0  0  0  0  0  0  0
   -2.8891    0.6994   -1.1196 H   0  0  0  0  0  0  0  0  0  0  0  0
   -3.2001    2.0040    0.0858 H   0  0  0  0  0  0  0  0  0  0  0  0
   -5.4922    0.0096   -1.7383 H   0  0  0  0  0  0  0  0  0  0  0  0
   -4.9941   -1.4615   -0.8599 H   0  0  0  0  0  0  0  0  0  0  0  0
    7.7615   -0.1697   -0.1622 H   0  0  0  0  0  0  0  0  0  0  0  0
    7.6608    0.7171    1.4517 H   0  0  0  0  0  0  0  0  0  0  0  0
   -7.5467   -0.0006   -0.8075 H   0  0  0  0  0  0  0  0  0  0  0  0
   -6.8671    0.0974    0.8238 H   0  0  0  0  0  0  0  0  0  0  0  0
   -7.0857   -1.5139    0.1473 H   0  0  0  0  0  0  0  0  0  0  0  0
   -4.1555    3.0979   -1.5175 H   0  0  0  0  0  0  0  0  0  0  0  0
   -5.5277    1.9565   -1.3758 H   0  0  0  0  0  0  0  0  0  0  0  0
   -4.2155    1.6392   -2.6518 H   0  0  0  0  0  0  0  0  0  0  0  0
    7.7238    2.0606   -0.8886 H   0  0  0  0  0  0  0  0  0  0  0  0
    6.6455    2.5655    0.4821 H   0  0  0  0  0  0  0  0  0  0  0  0
    5.9737    1.5641   -0.9109 H   0  0  0  0  0  0  0  0  0  0  0  0
  1  9  1  0
  1 17  1  0
  2 11  2  0
  3  8  2  0
  3  9  1  0
  4 11  1  0
  4 16  1  0
  5 18  1  0
  5 20  1  0
  5 21  1  0
  6  7  2  0
  6  8  1  0
  6 12  1  0
  7 10  1  0
  7 11  1  0
  8 13  1  0
  9 10  2  0
 12 14  2  0
 13 15  2  0
 14 15  1  0
 16 18  1  0
 17 19  1  0
 19 22  1  0
 20 24  1  0
 21 23  1  0
 22 25  1  0
  4 26  1  0
 10 27  1  0
 12 28  1  0
 13 29  1  0
 14 30  1  0
 15 31  1  0
 16 32  1  0
 16 33  1  0
 17 34  1  0
 17 35  1  0
 18 36  1  0
 18 37  1  0
 19 38  1  0
 19 39  1  0
 20 40  1  0
 20 41  1  0
 21 42  1  0
 21 43  1  0
 22 44  1  0
 22 45  1  0
 23 46  1  0
 23 47  1  0
 23 48  1  0
 24 49  1  0
 24 50  1  0
 24 51  1  0
 25 52  1  0
 25 53  1  0
 25 54  1  0
M  END

