46506347
     RDKit          3D

 10  9  0  0  0  0  0  0  0  0999 V2000
    0.0813   -1.4945   -0.5868 O   0  0  0  0  0  0  0  0  0  0  0  0
    0.1192   -0.1192   -0.4345 C   0  0  0  0  0  0  0  0  0  0  0  0
    1.3030    0.3513    0.3123 C   0  0  0  0  0  0  0  0  0  0  0  0
    2.1039   -0.4380    1.1012 O   0  0  0  0  0  1  0  0  0  0  0  0
    1.5893    1.5777    0.2080 O   0  0  0  0  0  0  0  0  0  0  0  0
   -1.1329    0.4092    0.1987 C   0  0  0  0  0  0  0  0  0  0  0  0
   -2.3331    0.4164   -0.5110 O   0  0  0  0  0  1  0  0  0  0  0  0
   -1.1429    0.8525    1.3616 O   0  0  0  0  0  0  0  0  0  0  0  0
   -0.7454   -1.8693   -0.1758 H   0  0  0  0  0  0  0  0  0  0  0  0
    0.1576    0.3138   -1.4736 H   0  0  0  0  0  0  0  0  0  0  0  0
  1  2  1  0
  2  3  1  0
  3  4  1  0
  3  5  2  0
  2  6  1  0
  6  7  1  0
  6  8  2  0
  1  9  1  0
  2 10  1  0
M  CHG  2   4  -1   7  -1
M  END

