46505384
     RDKit          3D

 38 38  0  0  1  0  0  0  0  0999 V2000
    3.5652    1.1667    0.0826 C   0  0  0  0  0  0  0  0  0  0  0  0
    3.7868    0.3771    1.1885 C   0  0  0  0  0  0  0  0  0  0  0  0
    2.9293   -0.6590    1.4462 C   0  0  0  0  0  0  0  0  0  0  0  0
    1.8644   -0.9059    0.6142 C   0  0  0  0  0  0  0  0  0  0  0  0
    1.6138   -0.1252   -0.5110 C   0  0  0  0  0  0  0  0  0  0  0  0
    2.4777    0.9050   -0.7569 C   0  0  0  0  0  0  0  0  0  0  0  0
    0.4568   -0.4380   -1.3817 C   0  0  0  0  0  0  0  0  0  0  0  0
   -0.8586    0.0695   -0.8699 C   0  0  0  0  0  0  0  0  0  0  0  0
    0.3823   -1.8513   -1.5533 O   0  0  0  0  0  0  0  0  0  0  0  0
   -1.2576   -0.4526    0.3998 N   0  0  0  0  0  0  0  0  0  0  0  0
    4.8795    0.6760    1.9937 O   0  0  0  0  0  0  0  0  0  0  0  0
    4.4314    2.2151   -0.1864 O   0  0  0  0  0  0  0  0  0  0  0  0
   -1.7514    0.6004    1.2870 C   0  0  0  0  0  0  0  0  0  0  0  0
   -3.0148    1.2371    0.7074 C   0  0  0  0  0  0  0  0  0  0  0  0
   -2.1264    0.0702    2.6314 C   0  0  0  0  0  0  0  0  0  0  0  0
   -1.8802   -0.2173   -1.9565 C   0  0  0  0  0  0  0  0  0  0  0  0
   -2.0091   -1.6860   -2.2686 C   0  0  0  0  0  0  0  0  0  0  0  0
    3.1066   -1.2730    2.3132 H   0  0  0  0  0  0  0  0  0  0  0  0
    1.1829   -1.7205    0.8112 H   0  0  0  0  0  0  0  0  0  0  0  0
    2.3320    1.5402   -1.6174 H   0  0  0  0  0  0  0  0  0  0  0  0
    0.5854   -0.0336   -2.4101 H   0  0  0  0  0  0  0  0  0  0  0  0
   -0.7888    1.1686   -0.7868 H   0  0  0  0  0  0  0  0  0  0  0  0
    1.2768   -2.1181   -1.9004 H   0  0  0  0  0  0  0  0  0  0  0  0
   -2.0077   -1.1558    0.3150 H   0  0  0  0  0  0  0  0  0  0  0  0
    5.0328    0.0932    2.7929 H   0  0  0  0  0  0  0  0  0  0  0  0
    4.3564    2.8348   -0.9579 H   0  0  0  0  0  0  0  0  0  0  0  0
   -0.9836    1.4088    1.3839 H   0  0  0  0  0  0  0  0  0  0  0  0
   -2.8188    1.9373   -0.1000 H   0  0  0  0  0  0  0  0  0  0  0  0
   -3.5034    1.7809    1.5426 H   0  0  0  0  0  0  0  0  0  0  0  0
   -3.7405    0.4199    0.4547 H   0  0  0  0  0  0  0  0  0  0  0  0
   -1.3654    0.2589    3.4075 H   0  0  0  0  0  0  0  0  0  0  0  0
   -3.0538    0.6007    3.0090 H   0  0  0  0  0  0  0  0  0  0  0  0
   -2.4427   -1.0083    2.5926 H   0  0  0  0  0  0  0  0  0  0  0  0
   -2.8688    0.1973   -1.7522 H   0  0  0  0  0  0  0  0  0  0  0  0
   -1.5049    0.3007   -2.8645 H   0  0  0  0  0  0  0  0  0  0  0  0
   -1.3494   -1.9773   -3.1111 H   0  0  0  0  0  0  0  0  0  0  0  0
   -1.8819   -2.3298   -1.3664 H   0  0  0  0  0  0  0  0  0  0  0  0
   -3.0523   -1.9066   -2.6224 H   0  0  0  0  0  0  0  0  0  0  0  0
  1  2  2  0
  2  3  1  0
  3  4  2  0
  4  5  1  0
  5  6  2  0
  1  6  1  0
  5  7  1  0
  7  8  1  0
  7  9  1  0
  8 10  1  0
  2 11  1  0
  1 12  1  0
 10 13  1  0
 13 14  1  0
 13 15  1  0
  8 16  1  0
 16 17  1  0
  3 18  1  0
  4 19  1  0
  6 20  1  0
  7 21  1  0
  8 22  1  0
  9 23  1  0
 10 24  1  0
 11 25  1  0
 12 26  1  0
 13 27  1  0
 14 28  1  0
 14 29  1  0
 14 30  1  0
 15 31  1  0
 15 32  1  0
 15 33  1  0
 16 34  1  0
 16 35  1  0
 17 36  1  0
 17 37  1  0
 17 38  1  0
M  END

