46504603
     RDKit          3D

 31 33  0  0  0  0  0  0  0  0999 V2000
   -1.6745    2.5148    0.4636 C   0  0  0  0  0  0  0  0  0  0  0  0
   -0.8810    1.2691    0.2817 C   0  0  0  0  0  0  0  0  0  0  0  0
   -1.4484    0.1319   -0.0247 C   0  0  0  0  0  0  0  0  0  0  0  0
   -2.8584    0.0861   -0.1877 N   0  0  0  0  0  0  0  0  0  0  0  0
   -4.0276    0.3341   -1.0908 C   0  0  0  0  0  0  0  0  0  0  0  0
   -4.2288   -0.1792    0.2472 C   0  0  0  0  0  0  0  0  0  0  0  0
   -0.7156   -1.1173   -0.2140 C   0  0  0  0  0  0  0  0  0  0  0  0
   -1.2880   -2.2044   -0.5102 O   0  0  0  0  0  0  0  0  0  0  0  0
    0.7523   -1.0811   -0.0468 C   0  0  0  0  0  0  0  0  0  0  0  0
    1.4839   -2.3567   -0.2419 C   0  0  0  0  0  0  0  0  0  0  0  0
    1.2854   -2.8570   -1.5402 O   0  0  0  0  0  0  0  0  0  0  0  0
    1.3716    0.0420    0.2622 C   0  0  0  0  0  0  0  0  0  0  0  0
    2.7991    0.0547    0.4200 N   0  0  0  0  0  0  0  0  0  0  0  0
    4.0098    0.9349    0.0776 C   0  0  0  0  0  0  0  0  0  0  0  0
    4.0976   -0.4000    0.8208 C   0  0  0  0  0  0  0  0  0  0  0  0
    0.5825    1.2626    0.4392 C   0  0  0  0  0  0  0  0  0  0  0  0
    1.1758    2.3205    0.7314 O   0  0  0  0  0  0  0  0  0  0  0  0
   -2.0843    2.8739   -0.5045 H   0  0  0  0  0  0  0  0  0  0  0  0
   -2.5026    2.3727    1.1946 H   0  0  0  0  0  0  0  0  0  0  0  0
   -1.0282    3.3079    0.8886 H   0  0  0  0  0  0  0  0  0  0  0  0
   -4.2621    1.3976   -1.2851 H   0  0  0  0  0  0  0  0  0  0  0  0
   -4.0868   -0.3045   -1.9915 H   0  0  0  0  0  0  0  0  0  0  0  0
   -4.4888   -1.2581    0.3661 H   0  0  0  0  0  0  0  0  0  0  0  0
   -4.6781    0.4726    1.0098 H   0  0  0  0  0  0  0  0  0  0  0  0
    1.1370   -3.0998    0.5148 H   0  0  0  0  0  0  0  0  0  0  0  0
    2.5665   -2.1679   -0.1533 H   0  0  0  0  0  0  0  0  0  0  0  0
    1.7729   -3.7289   -1.5553 H   0  0  0  0  0  0  0  0  0  0  0  0
    4.1446    0.9359   -1.0143 H   0  0  0  0  0  0  0  0  0  0  0  0
    4.0442    1.8565    0.6593 H   0  0  0  0  0  0  0  0  0  0  0  0
    4.6791   -1.1344    0.2649 H   0  0  0  0  0  0  0  0  0  0  0  0
    4.3509   -0.2786    1.8947 H   0  0  0  0  0  0  0  0  0  0  0  0
  1  2  1  0
  2  3  2  0
  3  4  1  0
  4  5  1  0
  5  6  1  0
  4  6  1  0
  3  7  1  0
  7  8  2  0
  7  9  1  0
  9 10  1  0
 10 11  1  0
  9 12  2  0
 12 13  1  0
 13 14  1  0
 14 15  1  0
 13 15  1  0
 12 16  1  0
  2 16  1  0
 16 17  2  0
  1 18  1  0
  1 19  1  0
  1 20  1  0
  5 21  1  0
  5 22  1  0
  6 23  1  0
  6 24  1  0
 10 25  1  0
 10 26  1  0
 11 27  1  0
 14 28  1  0
 14 29  1  0
 15 30  1  0
 15 31  1  0
M  END

