46505460
     RDKit          3D

 53 56  0  0  1  0  0  0  0  0999 V2000
   -3.8093   -0.7499   -1.1705 O   0  0  0  0  0  0  0  0  0  0  0  0
   -1.6540   -0.0399   -0.5132 C   0  0  1  0  0  0  0  0  0  0  0  0
   -1.0098   -0.4526    0.8136 C   0  0  2  0  0  0  0  0  0  0  0  0
    0.3879   -0.8836    0.4704 C   0  0  1  0  0  0  0  0  0  0  0  0
    1.1101    0.3772    0.0575 C   0  0  2  0  0  0  0  0  0  0  0  0
   -3.0896   -0.0445   -0.1792 C   0  0  2  0  0  0  0  0  0  0  0  0
   -1.0722    1.3253   -0.7915 C   0  0  0  0  0  0  0  0  0  0  0  0
   -1.9111   -1.5141    1.2883 C   0  0  0  0  0  0  0  0  0  0  0  0
    0.4166    1.1800   -0.9816 C   0  0  0  0  0  0  0  0  0  0  0  0
   -3.2765   -0.8377    1.1010 C   0  0  0  0  0  0  0  0  0  0  0  0
    2.4661   -0.0253   -0.4889 C   0  0  2  0  0  0  0  0  0  0  0  0
    1.0883   -1.5649    1.5889 C   0  0  0  0  0  0  0  0  0  0  0  0
   -1.3622   -1.0121   -1.6114 C   0  0  0  0  0  0  0  0  0  0  0  0
   -3.7265    1.3149   -0.0984 C   0  0  0  0  0  0  0  0  0  0  0  0
    2.5611   -1.6794    1.4747 C   0  0  0  0  0  0  0  0  0  0  0  0
    3.2096   -0.6365    0.6431 C   0  0  0  0  0  0  0  0  0  0  0  0
    3.1376    1.2823   -0.9318 C   0  0  0  0  0  0  0  0  0  0  0  0
    4.5865    0.9838   -1.1588 C   0  0  0  0  0  0  0  0  0  0  0  0
    4.4505   -0.2908    0.9571 C   0  0  0  0  0  0  0  0  0  0  0  0
   -5.1821    1.2006    0.2801 C   0  0  0  0  0  0  0  0  0  0  0  0
    5.2177    0.7395    0.2095 C   0  0  0  0  0  0  0  0  0  0  0  0
   -4.6652   -1.0900   -0.8312 H   0  0  0  0  0  0  0  0  0  0  0  0
   -0.9603    0.4200    1.4555 H   0  0  0  0  0  0  0  0  0  0  0  0
    0.4242   -1.5680   -0.4193 H   0  0  0  0  0  0  0  0  0  0  0  0
    1.2715    1.0023    0.9739 H   0  0  0  0  0  0  0  0  0  0  0  0
   -1.2082    1.9296    0.1302 H   0  0  0  0  0  0  0  0  0  0  0  0
   -1.4874    1.7994   -1.6908 H   0  0  0  0  0  0  0  0  0  0  0  0
   -1.9048   -2.3935    0.6485 H   0  0  0  0  0  0  0  0  0  0  0  0
   -1.7470   -1.7999    2.3467 H   0  0  0  0  0  0  0  0  0  0  0  0
    0.8314    2.2312   -0.9091 H   0  0  0  0  0  0  0  0  0  0  0  0
    0.6736    0.8706   -2.0268 H   0  0  0  0  0  0  0  0  0  0  0  0
   -3.4344   -0.1453    1.9759 H   0  0  0  0  0  0  0  0  0  0  0  0
   -4.0841   -1.5862    1.0247 H   0  0  0  0  0  0  0  0  0  0  0  0
    2.3250   -0.7051   -1.3333 H   0  0  0  0  0  0  0  0  0  0  0  0
    0.6415   -2.5728    1.8077 H   0  0  0  0  0  0  0  0  0  0  0  0
    0.8702   -0.9722    2.5265 H   0  0  0  0  0  0  0  0  0  0  0  0
   -2.2089   -0.9412   -2.3561 H   0  0  0  0  0  0  0  0  0  0  0  0
   -1.3529   -2.0662   -1.2877 H   0  0  0  0  0  0  0  0  0  0  0  0
   -0.4505   -0.8248   -2.1736 H   0  0  0  0  0  0  0  0  0  0  0  0
   -3.2415    1.9884    0.6198 H   0  0  0  0  0  0  0  0  0  0  0  0
   -3.6474    1.7743   -1.1051 H   0  0  0  0  0  0  0  0  0  0  0  0
    3.0601   -1.7734    2.4759 H   0  0  0  0  0  0  0  0  0  0  0  0
    2.7858   -2.6629    0.9658 H   0  0  0  0  0  0  0  0  0  0  0  0
    3.0127    2.0001   -0.0743 H   0  0  0  0  0  0  0  0  0  0  0  0
    2.5952    1.6120   -1.8329 H   0  0  0  0  0  0  0  0  0  0  0  0
    4.6439    0.0653   -1.7841 H   0  0  0  0  0  0  0  0  0  0  0  0
    5.1129    1.8291   -1.6338 H   0  0  0  0  0  0  0  0  0  0  0  0
    4.9643   -0.7617    1.7954 H   0  0  0  0  0  0  0  0  0  0  0  0
   -5.4571    1.9221    1.0915 H   0  0  0  0  0  0  0  0  0  0  0  0
   -5.8542    1.4880   -0.5797 H   0  0  0  0  0  0  0  0  0  0  0  0
   -5.4677    0.1723    0.5561 H   0  0  0  0  0  0  0  0  0  0  0  0
    5.1745    1.7077    0.7492 H   0  0  0  0  0  0  0  0  0  0  0  0
    6.2462    0.3785    0.0461 H   0  0  0  0  0  0  0  0  0  0  0  0
  6  1  1  6
  2  3  1  0
  2  6  1  0
  2  7  1  0
  2 13  1  6
  3  4  1  0
  3  8  1  0
  4  5  1  0
  4 12  1  0
  5  9  1  0
  5 11  1  0
  6 10  1  0
  6 14  1  0
  7  9  1  0
  8 10  1  0
 11 16  1  0
 11 17  1  0
 12 15  1  0
 14 20  1  0
 15 16  1  0
 16 19  2  0
 17 18  1  0
 18 21  1  0
 19 21  1  0
  1 22  1  0
  3 23  1  1
  4 24  1  6
  5 25  1  1
  7 26  1  0
  7 27  1  0
  8 28  1  0
  8 29  1  0
  9 30  1  0
  9 31  1  0
 10 32  1  0
 10 33  1  0
 11 34  1  6
 12 35  1  0
 12 36  1  0
 13 37  1  0
 13 38  1  0
 13 39  1  0
 14 40  1  0
 14 41  1  0
 15 42  1  0
 15 43  1  0
 17 44  1  0
 17 45  1  0
 18 46  1  0
 18 47  1  0
 19 48  1  0
 20 49  1  0
 20 50  1  0
 20 51  1  0
 21 52  1  0
 21 53  1  0
M  END

