46509131
     RDKit          3D

 21 20  0  0  1  0  0  0  0  0999 V2000
    2.5268    0.9776    0.3447 C   0  0  0  0  0  0  0  0  0  0  0  0
    1.1457   -1.1421   -0.0037 C   0  0  0  0  0  0  0  0  0  0  0  0
   -0.2758   -1.1915   -0.5532 C   0  0  0  0  0  0  0  0  0  0  0  0
    1.9203   -0.0239   -0.5894 C   0  0  0  0  0  0  0  0  0  0  0  0
   -0.9658    0.1184   -0.1984 C   0  0  1  0  0  0  0  0  0  0  0  0
   -2.3491    0.1816   -0.6743 C   0  0  0  0  0  0  0  0  0  0  0  0
   -0.9279    0.3592    1.2135 N   0  0  0  0  0  0  0  0  0  0  0  0
    2.0804    0.1100   -1.7929 O   0  0  0  0  0  0  0  0  0  0  0  0
   -2.7041    0.0596   -1.8764 O   0  0  0  0  0  0  0  0  0  0  0  0
   -3.3733    0.3908    0.2449 O   0  0  0  0  0  0  0  0  0  0  0  0
    2.8558    0.4094    1.2394 H   0  0  0  0  0  0  0  0  0  0  0  0
    3.3447    1.5475   -0.1330 H   0  0  0  0  0  0  0  0  0  0  0  0
    1.7248    1.7024    0.6782 H   0  0  0  0  0  0  0  0  0  0  0  0
    1.1155   -1.0541    1.0839 H   0  0  0  0  0  0  0  0  0  0  0  0
    1.6806   -2.1050   -0.2380 H   0  0  0  0  0  0  0  0  0  0  0  0
   -0.2841   -1.3765   -1.6354 H   0  0  0  0  0  0  0  0  0  0  0  0
   -0.7987   -2.0140   -0.0481 H   0  0  0  0  0  0  0  0  0  0  0  0
   -0.3180    0.9094   -0.6736 H   0  0  0  0  0  0  0  0  0  0  0  0
   -1.2399   -0.4331    1.8083 H   0  0  0  0  0  0  0  0  0  0  0  0
   -1.4068    1.2448    1.4486 H   0  0  0  0  0  0  0  0  0  0  0  0
   -3.7513    1.3297    0.3548 H   0  0  0  0  0  0  0  0  0  0  0  0
  2  3  1  0
  1  4  1  0
  2  4  1  0
  3  5  1  0
  5  6  1  0
  5  7  1  0
  4  8  2  0
  6  9  2  0
  6 10  1  0
  1 11  1  0
  1 12  1  0
  1 13  1  0
  2 14  1  0
  2 15  1  0
  3 16  1  0
  3 17  1  0
  5 18  1  6
  7 19  1  0
  7 20  1  0
 10 21  1  0
M  END

