46504739
     RDKit          3D

 23 23  0  0  0  0  0  0  0  0999 V2000
    0.6159    0.7067    1.1333 C   0  0  0  0  0  0  0  0  0  0  0  0
    1.9730    0.6100    0.9132 C   0  0  0  0  0  0  0  0  0  0  0  0
   -0.2877    0.1547    0.2507 C   0  0  0  0  0  0  0  0  0  0  0  0
    2.4788   -0.0452   -0.2022 C   0  0  0  0  0  0  0  0  0  0  0  0
    0.2010   -0.5034   -0.8688 C   0  0  0  0  0  0  0  0  0  0  0  0
    1.5793   -0.5995   -1.0888 C   0  0  0  0  0  0  0  0  0  0  0  0
    3.8763   -0.1242   -0.3944 N   0  0  0  0  0  0  0  0  0  0  0  0
   -1.7553    0.2236    0.4290 C   0  0  0  0  0  0  0  0  0  0  0  0
   -2.4286    0.9965   -0.6818 C   0  0  0  0  0  0  0  0  0  0  0  0
   -2.3632   -1.1572    0.5781 C   0  0  0  0  0  0  0  0  0  0  0  0
    0.2520    1.2229    2.0106 H   0  0  0  0  0  0  0  0  0  0  0  0
    2.6932    1.0358    1.5930 H   0  0  0  0  0  0  0  0  0  0  0  0
   -0.4768   -0.9544   -1.5925 H   0  0  0  0  0  0  0  0  0  0  0  0
    1.9516   -1.1164   -1.9676 H   0  0  0  0  0  0  0  0  0  0  0  0
    4.4016    0.5654   -0.9588 H   0  0  0  0  0  0  0  0  0  0  0  0
    4.3960   -0.9017    0.0461 H   0  0  0  0  0  0  0  0  0  0  0  0
   -1.9505    0.7869    1.3779 H   0  0  0  0  0  0  0  0  0  0  0  0
   -1.8196    0.9563   -1.6120 H   0  0  0  0  0  0  0  0  0  0  0  0
   -2.5028    2.0724   -0.3911 H   0  0  0  0  0  0  0  0  0  0  0  0
   -3.4228    0.6123   -0.9269 H   0  0  0  0  0  0  0  0  0  0  0  0
   -1.5356   -1.8151    0.9727 H   0  0  0  0  0  0  0  0  0  0  0  0
   -2.6849   -1.5708   -0.4125 H   0  0  0  0  0  0  0  0  0  0  0  0
   -3.1909   -1.1556    1.3065 H   0  0  0  0  0  0  0  0  0  0  0  0
  1  2  2  0
  1  3  1  0
  2  4  1  0
  3  5  2  0
  4  6  2  0
  5  6  1  0
  4  7  1  0
  3  8  1  0
  8  9  1  0
  8 10  1  0
  1 11  1  0
  2 12  1  0
  5 13  1  0
  6 14  1  0
  7 15  1  0
  7 16  1  0
  8 17  1  0
  9 18  1  0
  9 19  1  0
  9 20  1  0
 10 21  1  0
 10 22  1  0
 10 23  1  0
M  END

