46506172
     RDKit          3D

 11 10  0  0  1  0  0  0  0  0999 V2000
   -0.0670    0.1668   -0.5070 C   0  0  2  0  0  0  0  0  0  0  0  0
    1.0730   -0.2835    0.4103 C   0  0  0  0  0  0  0  0  0  0  0  0
   -2.2977    0.0522    0.1133 O   0  0  0  0  0  0  0  0  0  0  0  0
   -0.2531    1.5169   -0.3427 O   0  0  0  0  0  0  0  0  0  0  0  0
   -1.3087   -0.5781   -0.2181 C   0  0  0  0  0  0  0  0  0  0  0  0
    0.2669   -0.0034   -1.5507 H   0  0  0  0  0  0  0  0  0  0  0  0
    1.8244    0.5343    0.3792 H   0  0  0  0  0  0  0  0  0  0  0  0
    1.5272   -1.1932   -0.0016 H   0  0  0  0  0  0  0  0  0  0  0  0
    0.7093   -0.3758    1.4385 H   0  0  0  0  0  0  0  0  0  0  0  0
   -0.1329    1.8379    0.5782 H   0  0  0  0  0  0  0  0  0  0  0  0
   -1.3415   -1.6741   -0.2996 H   0  0  0  0  0  0  0  0  0  0  0  0
  1  5  1  0
  3  5  2  0
  1  2  1  0
  1  4  1  0
  1  6  1  6
  2  7  1  0
  2  8  1  0
  2  9  1  0
  4 10  1  0
  5 11  1  0
M  END

