46504695
     RDKit          3D

 17 17  0  0  0  0  0  0  0  0999 V2000
    2.9596    0.2120    0.2399 N   0  0  0  0  0  0  0  0  0  0  0  0
    1.5600    0.0720    0.1969 C   0  0  0  0  0  0  0  0  0  0  0  0
    0.7649    1.1273    0.5013 C   0  0  0  0  0  0  0  0  0  0  0  0
   -0.5971    0.9681    0.4528 C   0  0  0  0  0  0  0  0  0  0  0  0
   -1.1378   -0.2495    0.0991 C   0  0  0  0  0  0  0  0  0  0  0  0
   -0.3196   -1.3334   -0.2136 C   0  0  0  0  0  0  0  0  0  0  0  0
    1.0367   -1.1604   -0.1611 C   0  0  0  0  0  0  0  0  0  0  0  0
   -2.5731   -0.3783    0.0592 C   0  0  0  0  0  0  0  0  0  0  0  0
   -3.3582    0.7047    0.3715 O   0  0  0  0  0  0  0  0  0  0  0  0
   -3.0933   -1.4685   -0.2574 O   0  0  0  0  0  0  0  0  0  0  0  0
    3.6085   -0.4221   -0.2767 H   0  0  0  0  0  0  0  0  0  0  0  0
    3.4053    0.9697    0.8011 H   0  0  0  0  0  0  0  0  0  0  0  0
    1.1583    2.1031    0.7848 H   0  0  0  0  0  0  0  0  0  0  0  0
   -1.2295    1.8289    0.7011 H   0  0  0  0  0  0  0  0  0  0  0  0
   -0.7383   -2.2870   -0.4906 H   0  0  0  0  0  0  0  0  0  0  0  0
    1.7216   -1.9697   -0.3944 H   0  0  0  0  0  0  0  0  0  0  0  0
   -3.1679    1.2832    1.1918 H   0  0  0  0  0  0  0  0  0  0  0  0
  1  2  1  0
  2  3  2  0
  3  4  1  0
  4  5  2  0
  5  6  1  0
  6  7  2  0
  2  7  1  0
  5  8  1  0
  8  9  1  0
  8 10  2  0
  1 11  1  0
  1 12  1  0
  3 13  1  0
  4 14  1  0
  6 15  1  0
  7 16  1  0
  9 17  1  0
M  END

