46508701
     RDKit          3D

 49 52  0  0  1  0  0  0  0  0999 V2000
    4.6696   -0.5332    1.4626 O   0  0  0  0  0  0  0  0  0  0  0  0
   -5.4974   -0.3716   -0.4859 O   0  0  0  0  0  0  0  0  0  0  0  0
   -0.2036   -0.3340    0.4013 C   0  0  1  0  0  0  0  0  0  0  0  0
    0.5419    0.5875   -0.5741 C   0  0  2  0  0  0  0  0  0  0  0  0
   -1.6153   -0.4047   -0.0373 C   0  0  2  0  0  0  0  0  0  0  0  0
    1.9029    0.7351   -0.0116 C   0  0  1  0  0  0  0  0  0  0  0  0
    2.6546   -0.5753    0.0712 C   0  0  2  0  0  0  0  0  0  0  0  0
   -2.2659    0.9278    0.1849 C   0  0  1  0  0  0  0  0  0  0  0  0
    0.5060   -1.6513    0.3926 C   0  0  0  0  0  0  0  0  0  0  0  0
   -0.1373    1.8776   -0.7877 C   0  0  0  0  0  0  0  0  0  0  0  0
    1.9061   -1.4842    0.9693 C   0  0  0  0  0  0  0  0  0  0  0  0
   -1.4190    2.1047   -0.1061 C   0  0  0  0  0  0  0  0  0  0  0  0
    2.8516    1.6153   -0.7074 C   0  0  0  0  0  0  0  0  0  0  0  0
   -2.3386   -1.4236    0.8054 C   0  0  0  0  0  0  0  0  0  0  0  0
    3.9440   -0.0754    0.6314 C   0  0  0  0  0  0  0  0  0  0  0  0
   -1.6961   -0.8594   -1.4764 C   0  0  0  0  0  0  0  0  0  0  0  0
   -3.5742    0.9142   -0.5963 C   0  0  0  0  0  0  0  0  0  0  0  0
    4.1956    1.2070   -0.0862 C   0  0  0  0  0  0  0  0  0  0  0  0
    2.9651   -1.1581   -1.2796 C   0  0  0  0  0  0  0  0  0  0  0  0
   -3.8128   -1.2434    0.8505 C   0  0  0  0  0  0  0  0  0  0  0  0
   -4.3505   -0.2518   -0.0877 C   0  0  0  0  0  0  0  0  0  0  0  0
   -0.0899    0.1362    1.3969 H   0  0  0  0  0  0  0  0  0  0  0  0
    0.6016   -0.0153   -1.5263 H   0  0  0  0  0  0  0  0  0  0  0  0
    1.7989    1.0908    1.0480 H   0  0  0  0  0  0  0  0  0  0  0  0
   -2.5846    0.9436    1.2701 H   0  0  0  0  0  0  0  0  0  0  0  0
    0.6497   -1.9905   -0.6588 H   0  0  0  0  0  0  0  0  0  0  0  0
    0.0124   -2.4224    1.0135 H   0  0  0  0  0  0  0  0  0  0  0  0
   -0.2523    2.0350   -1.8981 H   0  0  0  0  0  0  0  0  0  0  0  0
    0.5756    2.7018   -0.4831 H   0  0  0  0  0  0  0  0  0  0  0  0
    1.8911   -1.0916    1.9862 H   0  0  0  0  0  0  0  0  0  0  0  0
    2.3804   -2.5023    0.9161 H   0  0  0  0  0  0  0  0  0  0  0  0
   -2.0354    2.8081   -0.7449 H   0  0  0  0  0  0  0  0  0  0  0  0
   -1.2519    2.7082    0.8361 H   0  0  0  0  0  0  0  0  0  0  0  0
    2.6730    2.6773   -0.3866 H   0  0  0  0  0  0  0  0  0  0  0  0
    2.8749    1.5432   -1.7965 H   0  0  0  0  0  0  0  0  0  0  0  0
   -2.0487   -2.4728    0.5326 H   0  0  0  0  0  0  0  0  0  0  0  0
   -1.9369   -1.2967    1.8534 H   0  0  0  0  0  0  0  0  0  0  0  0
   -1.3235   -0.1124   -2.1933 H   0  0  0  0  0  0  0  0  0  0  0  0
   -2.7581   -1.0672   -1.7824 H   0  0  0  0  0  0  0  0  0  0  0  0
   -1.1831   -1.8397   -1.5397 H   0  0  0  0  0  0  0  0  0  0  0  0
   -4.1307    1.8534   -0.3324 H   0  0  0  0  0  0  0  0  0  0  0  0
   -3.4136    0.8620   -1.6846 H   0  0  0  0  0  0  0  0  0  0  0  0
    4.5798    1.9743    0.5898 H   0  0  0  0  0  0  0  0  0  0  0  0
    4.9100    1.0607   -0.9366 H   0  0  0  0  0  0  0  0  0  0  0  0
    3.7351   -0.5289   -1.7838 H   0  0  0  0  0  0  0  0  0  0  0  0
    2.1059   -1.3301   -1.9226 H   0  0  0  0  0  0  0  0  0  0  0  0
    3.4513   -2.1397   -1.1029 H   0  0  0  0  0  0  0  0  0  0  0  0
   -4.2943   -2.2490    0.6940 H   0  0  0  0  0  0  0  0  0  0  0  0
   -4.1632   -0.9391    1.8806 H   0  0  0  0  0  0  0  0  0  0  0  0
  1 15  2  0
  2 21  2  0
  3  4  1  0
  3  5  1  0
  3  9  1  0
  4  6  1  0
  4 10  1  0
  5  8  1  0
  5 14  1  0
  5 16  1  6
  6  7  1  0
  6 13  1  0
  7 11  1  0
  7 15  1  0
  7 19  1  6
  8 12  1  0
  8 17  1  0
  9 11  1  0
 10 12  1  0
 13 18  1  0
 14 20  1  0
 15 18  1  0
 17 21  1  0
 20 21  1  0
  3 22  1  1
  4 23  1  6
  6 24  1  1
  8 25  1  1
  9 26  1  0
  9 27  1  0
 10 28  1  0
 10 29  1  0
 11 30  1  0
 11 31  1  0
 12 32  1  0
 12 33  1  0
 13 34  1  0
 13 35  1  0
 14 36  1  0
 14 37  1  0
 16 38  1  0
 16 39  1  0
 16 40  1  0
 17 41  1  0
 17 42  1  0
 18 43  1  0
 18 44  1  0
 19 45  1  0
 19 46  1  0
 19 47  1  0
 20 48  1  0
 20 49  1  0
M  END

