46507786
     RDKit          3D

 88 93  0  0  1  0  0  0  0  0999 V2000
    1.2402   -2.0034   -2.3386 O   0  0  0  0  0  0  0  0  0  0  0  0
    1.8652    0.1558   -0.7080 O   0  0  0  0  0  0  0  0  0  0  0  0
   -1.4408   -3.7896    0.0593 O   0  0  0  0  0  0  0  0  0  0  0  0
   -1.6313   -4.2665   -2.1398 O   0  0  0  0  0  0  0  0  0  0  0  0
    1.7610    1.8040   -2.2407 O   0  0  0  0  0  0  0  0  0  0  0  0
   -9.7932    2.7838   -1.1328 O   0  0  0  0  0  0  0  0  0  0  0  0
    8.5313    3.6303   -1.0580 O   0  0  0  0  0  0  0  0  0  0  0  0
    8.6357   -0.0083    2.0881 O   0  0  0  0  0  0  0  0  0  0  0  0
    9.9532    2.0636    0.8475 O   0  0  0  0  0  0  0  0  0  0  0  0
   -3.4095   -1.7172    1.3267 N   0  0  0  0  0  0  0  0  0  0  0  0
   -6.0696   -0.3245   -0.8838 N   0  0  0  0  0  0  0  0  0  0  0  0
   -2.0223   -0.9877   -1.0959 C   0  0  2  0  0  0  0  0  0  0  0  0
   -1.7067   -0.3385    0.1947 C   0  0  1  0  0  0  0  0  0  0  0  0
   -3.4001   -1.5351   -1.1453 C   0  0  0  0  0  0  0  0  0  0  0  0
   -1.0149   -1.9815   -1.6157 C   0  0  1  0  0  0  0  0  0  0  0  0
   -4.1449   -1.6646    0.1301 C   0  0  2  0  0  0  0  0  0  0  0  0
   -2.2014   -1.0010    1.4297 C   0  0  0  0  0  0  0  0  0  0  0  0
   -0.2446   -0.0240    0.3843 C   0  0  0  0  0  0  0  0  0  0  0  0
    0.4121   -1.6913   -1.2364 C   0  0  2  0  0  0  0  0  0  0  0  0
    0.5308   -0.2243   -0.9051 C   0  0  2  0  0  0  0  0  0  0  0  0
   -5.2822   -0.6757    0.1506 C   0  0  0  0  0  0  0  0  0  0  0  0
   -4.2075   -1.5668    2.4948 C   0  0  0  0  0  0  0  0  0  0  0  0
   -5.6676    0.0082    1.2753 C   0  0  0  0  0  0  0  0  0  0  0  0
   -4.9374   -0.2321    2.5361 C   0  0  0  0  0  0  0  0  0  0  0  0
   -1.3780   -3.4005   -1.2664 C   0  0  0  0  0  0  0  0  0  0  0  0
   -6.7258    0.7980    0.8955 C   0  0  0  0  0  0  0  0  0  0  0  0
   -6.9734    0.5849   -0.4592 C   0  0  0  0  0  0  0  0  0  0  0  0
    2.1646   -2.9762   -1.9717 C   0  0  0  0  0  0  0  0  0  0  0  0
   -7.5212    1.6895    1.5697 C   0  0  0  0  0  0  0  0  0  0  0  0
    2.4455    1.1833   -1.4031 C   0  0  0  0  0  0  0  0  0  0  0  0
   -7.9857    1.2432   -1.1201 C   0  0  0  0  0  0  0  0  0  0  0  0
   -8.5423    2.3535    0.9038 C   0  0  0  0  0  0  0  0  0  0  0  0
   -8.7752    2.1303   -0.4428 C   0  0  0  0  0  0  0  0  0  0  0  0
   -1.7835   -5.1278    0.3584 C   0  0  0  0  0  0  0  0  0  0  0  0
    3.8627    1.5655   -1.1764 C   0  0  0  0  0  0  0  0  0  0  0  0
    4.5827    0.9179   -0.3097 C   0  0  0  0  0  0  0  0  0  0  0  0
  -10.6731    3.7098   -0.5770 C   0  0  0  0  0  0  0  0  0  0  0  0
    5.9606    1.2473   -0.0498 C   0  0  0  0  0  0  0  0  0  0  0  0
    6.6593    0.4824    0.8819 C   0  0  0  0  0  0  0  0  0  0  0  0
    6.6080    2.2822   -0.6745 C   0  0  0  0  0  0  0  0  0  0  0  0
    7.9477    2.5842   -0.3978 C   0  0  0  0  0  0  0  0  0  0  0  0
    7.9726    0.7824    1.1502 C   0  0  0  0  0  0  0  0  0  0  0  0
    8.6284    1.8264    0.5208 C   0  0  0  0  0  0  0  0  0  0  0  0
    7.8945    4.4415   -2.0039 C   0  0  0  0  0  0  0  0  0  0  0  0
    7.9913   -1.0653    2.7284 C   0  0  0  0  0  0  0  0  0  0  0  0
   10.9797    1.4112    0.0933 C   0  0  0  0  0  0  0  0  0  0  0  0
   -6.0266   -0.6744   -1.8771 H   0  0  0  0  0  0  0  0  0  0  0  0
   -1.9811   -0.1391   -1.8656 H   0  0  0  0  0  0  0  0  0  0  0  0
   -2.2099    0.6806    0.1848 H   0  0  0  0  0  0  0  0  0  0  0  0
   -3.3349   -2.5317   -1.6844 H   0  0  0  0  0  0  0  0  0  0  0  0
   -4.0205   -0.9246   -1.8698 H   0  0  0  0  0  0  0  0  0  0  0  0
   -1.0388   -1.9653   -2.7499 H   0  0  0  0  0  0  0  0  0  0  0  0
   -4.7017   -2.6629    0.0650 H   0  0  0  0  0  0  0  0  0  0  0  0
   -1.4052   -1.6982    1.8294 H   0  0  0  0  0  0  0  0  0  0  0  0
   -2.3148   -0.2586    2.2786 H   0  0  0  0  0  0  0  0  0  0  0  0
   -0.0529    1.0275    0.6906 H   0  0  0  0  0  0  0  0  0  0  0  0
    0.2169   -0.6663    1.1690 H   0  0  0  0  0  0  0  0  0  0  0  0
    0.7560   -2.3322   -0.3919 H   0  0  0  0  0  0  0  0  0  0  0  0
   -0.0121    0.3508   -1.6719 H   0  0  0  0  0  0  0  0  0  0  0  0
   -4.9148   -2.4040    2.6665 H   0  0  0  0  0  0  0  0  0  0  0  0
   -3.5485   -1.5614    3.4092 H   0  0  0  0  0  0  0  0  0  0  0  0
   -5.6593   -0.2996    3.3896 H   0  0  0  0  0  0  0  0  0  0  0  0
   -4.2370    0.5964    2.7933 H   0  0  0  0  0  0  0  0  0  0  0  0
    2.8202   -3.2267   -2.8342 H   0  0  0  0  0  0  0  0  0  0  0  0
    1.6827   -3.8922   -1.5485 H   0  0  0  0  0  0  0  0  0  0  0  0
    2.7955   -2.5563   -1.1664 H   0  0  0  0  0  0  0  0  0  0  0  0
   -7.3424    1.8674    2.6177 H   0  0  0  0  0  0  0  0  0  0  0  0
   -8.1716    1.0721   -2.1723 H   0  0  0  0  0  0  0  0  0  0  0  0
   -9.1922    3.0654    1.4019 H   0  0  0  0  0  0  0  0  0  0  0  0
   -2.3431   -5.6280   -0.4496 H   0  0  0  0  0  0  0  0  0  0  0  0
   -0.8874   -5.7643    0.5597 H   0  0  0  0  0  0  0  0  0  0  0  0
   -2.4405   -5.0978    1.2755 H   0  0  0  0  0  0  0  0  0  0  0  0
    4.2557    2.3763   -1.7456 H   0  0  0  0  0  0  0  0  0  0  0  0
    4.1078    0.0880    0.2400 H   0  0  0  0  0  0  0  0  0  0  0  0
  -10.9937    3.3389    0.4062 H   0  0  0  0  0  0  0  0  0  0  0  0
  -10.1640    4.6975   -0.5234 H   0  0  0  0  0  0  0  0  0  0  0  0
  -11.5311    3.8140   -1.2952 H   0  0  0  0  0  0  0  0  0  0  0  0
    6.1503   -0.3345    1.3755 H   0  0  0  0  0  0  0  0  0  0  0  0
    6.1052    2.9040   -1.4054 H   0  0  0  0  0  0  0  0  0  0  0  0
    8.5420    5.3374   -2.1624 H   0  0  0  0  0  0  0  0  0  0  0  0
    7.8580    3.8914   -2.9619 H   0  0  0  0  0  0  0  0  0  0  0  0
    6.9042    4.8100   -1.7077 H   0  0  0  0  0  0  0  0  0  0  0  0
    7.4661   -1.7538    2.0016 H   0  0  0  0  0  0  0  0  0  0  0  0
    8.7617   -1.7008    3.2498 H   0  0  0  0  0  0  0  0  0  0  0  0
    7.2198   -0.7497    3.4572 H   0  0  0  0  0  0  0  0  0  0  0  0
   11.9320    1.9918    0.2456 H   0  0  0  0  0  0  0  0  0  0  0  0
   10.7666    1.4871   -0.9993 H   0  0  0  0  0  0  0  0  0  0  0  0
   11.0888    0.3485    0.3860 H   0  0  0  0  0  0  0  0  0  0  0  0
 19  1  1  0
  1 28  1  0
 20  2  1  0
  2 30  1  0
  3 25  1  0
  3 34  1  0
  4 25  2  0
  5 30  2  0
  6 33  1  0
  6 37  1  0
  7 41  1  0
  7 44  1  0
  8 42  1  0
  8 45  1  0
  9 43  1  0
  9 46  1  0
 10 16  1  0
 10 17  1  0
 10 22  1  0
 11 21  1  0
 11 27  1  0
 12 13  1  0
 12 14  1  0
 12 15  1  0
 13 17  1  0
 13 18  1  0
 14 16  1  0
 15 19  1  0
 15 25  1  0
 16 21  1  0
 18 20  1  0
 19 20  1  0
 21 23  2  0
 22 24  1  0
 23 24  1  0
 23 26  1  0
 26 27  2  0
 26 29  1  0
 27 31  1  0
 29 32  2  0
 30 35  1  0
 31 33  2  0
 32 33  1  0
 35 36  2  3
 36 38  1  0
 38 39  2  0
 38 40  1  0
 39 42  1  0
 40 41  2  0
 41 43  1  0
 42 43  2  0
 11 47  1  0
 12 48  1  6
 13 49  1  6
 14 50  1  0
 14 51  1  0
 15 52  1  6
 16 53  1  6
 17 54  1  0
 17 55  1  0
 18 56  1  0
 18 57  1  0
 19 58  1  1
 20 59  1  6
 22 60  1  0
 22 61  1  0
 24 62  1  0
 24 63  1  0
 28 64  1  0
 28 65  1  0
 28 66  1  0
 29 67  1  0
 31 68  1  0
 32 69  1  0
 34 70  1  0
 34 71  1  0
 34 72  1  0
 35 73  1  0
 36 74  1  0
 37 75  1  0
 37 76  1  0
 37 77  1  0
 39 78  1  0
 40 79  1  0
 44 80  1  0
 44 81  1  0
 44 82  1  0
 45 83  1  0
 45 84  1  0
 45 85  1  0
 46 86  1  0
 46 87  1  0
 46 88  1  0
M  END

