46508018
     RDKit          3D

 36 39  0  0  0  0  0  0  0  0999 V2000
   -4.0766    0.4773    0.4381 C   0  0  0  0  0  0  0  0  0  0  0  0
   -4.0230    0.8737   -0.8891 C   0  0  0  0  0  0  0  0  0  0  0  0
   -2.9698    0.5022   -1.6915 C   0  0  0  0  0  0  0  0  0  0  0  0
   -1.9753   -0.2702   -1.1439 C   0  0  0  0  0  0  0  0  0  0  0  0
   -2.0186   -0.6718    0.1802 C   0  0  0  0  0  0  0  0  0  0  0  0
   -3.0729   -0.2975    0.9761 C   0  0  0  0  0  0  0  0  0  0  0  0
   -5.1885    0.8698    1.2847 C   0  0  0  0  0  0  0  0  0  0  0  0
   -0.1867   -1.4898   -0.6837 C   0  0  0  0  0  0  0  0  0  0  0  0
    1.0844   -2.2125   -0.8030 C   0  0  0  0  0  0  0  0  0  0  0  0
   -6.2353    1.6804    0.7157 N   0  0  0  0  0  0  0  0  0  0  0  0
   -5.3347    0.5610    2.5116 N   0  0  0  0  0  0  0  0  0  0  0  0
   -0.8414   -0.7903   -1.6359 N   0  0  0  0  0  0  0  0  0  0  0  0
   -0.9243   -1.4078    0.4299 N   0  0  0  0  0  0  0  0  0  0  0  0
    5.7380    0.9168    1.2299 C   0  0  0  0  0  0  0  0  0  0  0  0
    5.8582    1.3138   -0.0856 C   0  0  0  0  0  0  0  0  0  0  0  0
    4.9666    0.8403   -1.0206 C   0  0  0  0  0  0  0  0  0  0  0  0
    3.9419   -0.0390   -0.6450 C   0  0  0  0  0  0  0  0  0  0  0  0
    3.8437   -0.4234    0.6896 C   0  0  0  0  0  0  0  0  0  0  0  0
    4.7343    0.0492    1.6249 C   0  0  0  0  0  0  0  0  0  0  0  0
    2.2623   -1.3745   -0.4874 C   0  0  0  0  0  0  0  0  0  0  0  0
    2.9651   -0.6321   -1.3478 N   0  0  0  0  0  0  0  0  0  0  0  0
    2.7986   -1.2429    0.7382 N   0  0  0  0  0  0  0  0  0  0  0  0
   -4.8381    1.4863   -1.2745 H   0  0  0  0  0  0  0  0  0  0  0  0
   -2.8902    0.7877   -2.7229 H   0  0  0  0  0  0  0  0  0  0  0  0
   -3.0930   -0.6209    2.0148 H   0  0  0  0  0  0  0  0  0  0  0  0
    1.2326   -2.6461   -1.8151 H   0  0  0  0  0  0  0  0  0  0  0  0
    1.0625   -3.0738   -0.1036 H   0  0  0  0  0  0  0  0  0  0  0  0
   -6.6502    1.3632   -0.1852 H   0  0  0  0  0  0  0  0  0  0  0  0
   -6.5445    2.5435    1.2072 H   0  0  0  0  0  0  0  0  0  0  0  0
   -4.6994   -0.0054    3.0872 H   0  0  0  0  0  0  0  0  0  0  0  0
   -0.4841   -0.6917   -2.6038 H   0  0  0  0  0  0  0  0  0  0  0  0
    6.4219    1.2677    2.0005 H   0  0  0  0  0  0  0  0  0  0  0  0
    6.6452    1.9884   -0.3710 H   0  0  0  0  0  0  0  0  0  0  0  0
    5.0247    1.1273   -2.0682 H   0  0  0  0  0  0  0  0  0  0  0  0
    4.6338   -0.2635    2.6420 H   0  0  0  0  0  0  0  0  0  0  0  0
    2.8331   -0.4955   -2.3802 H   0  0  0  0  0  0  0  0  0  0  0  0
  1  2  2  0
  1  6  1  0
  1  7  1  0
  2  3  1  0
  3  4  2  0
  4  5  1  0
  4 12  1  0
  5  6  2  0
  5 13  1  0
  7 10  1  0
  7 11  2  3
  8  9  1  0
  8 12  1  0
  8 13  2  0
  9 20  1  0
 14 15  2  0
 14 19  1  0
 15 16  1  0
 16 17  2  0
 17 18  1  0
 17 21  1  0
 18 19  2  0
 18 22  1  0
 20 21  1  0
 20 22  2  0
  2 23  1  0
  3 24  1  0
  6 25  1  0
  9 26  1  0
  9 27  1  0
 10 28  1  0
 10 29  1  0
 11 30  1  0
 12 31  1  0
 14 32  1  0
 15 33  1  0
 16 34  1  0
 19 35  1  0
 21 36  1  0
M  END

