46508037
     RDKit          3D

 50 52  0  0  1  0  0  0  0  0999 V2000
   -2.5920    0.6904    0.3806 C   0  0  0  0  0  0  0  0  0  0  0  0
   -3.5892   -0.2265    0.9585 C   0  0  0  0  0  0  0  0  0  0  0  0
   -1.4061   -0.8411   -1.2868 C   0  0  0  0  0  0  0  0  0  0  0  0
    6.2628   -1.1607    0.4521 C   0  0  0  0  0  0  0  0  0  0  0  0
    2.9726    1.6455   -0.4050 C   0  0  0  0  0  0  0  0  0  0  0  0
   -2.0990    0.4142   -0.9919 C   0  0  1  0  0  0  0  0  0  0  0  0
   -4.9104   -0.3619    0.2922 C   0  0  1  0  0  0  0  0  0  0  0  0
   -0.1224   -1.1902   -0.6580 C   0  0  2  0  0  0  0  0  0  0  0  0
    5.0654    1.1232   -0.0961 C   0  0  0  0  0  0  0  0  0  0  0  0
   -0.0716   -1.3331    0.7993 C   0  0  2  0  0  0  0  0  0  0  0  0
    1.0426   -0.3261    1.1671 C   0  0  2  0  0  0  0  0  0  0  0  0
    6.4364    1.1007    0.0464 C   0  0  0  0  0  0  0  0  0  0  0  0
    4.2822   -0.0108    0.0371 C   0  0  0  0  0  0  0  0  0  0  0  0
    1.8860   -0.5530   -0.1032 C   0  0  2  0  0  0  0  0  0  0  0  0
   -5.6720    0.8825    0.1771 C   0  0  0  0  0  0  0  0  0  0  0  0
   -3.1842    0.6709   -1.9507 N   0  0  0  0  0  0  0  0  0  0  0  0
   -4.8428   -1.0836   -0.9550 N   0  0  0  0  0  0  0  0  0  0  0  0
    7.2351    2.2802   -0.0938 N   0  0  0  0  0  0  0  0  0  0  0  0
    7.0332   -0.0693    0.3256 N   0  0  0  0  0  0  0  0  0  0  0  0
    4.9247   -1.1543    0.3159 N   0  0  0  0  0  0  0  0  0  0  0  0
    4.2278    2.1458   -0.3720 N   0  0  0  0  0  0  0  0  0  0  0  0
    2.9934    0.3436   -0.1592 N   0  0  0  0  0  0  0  0  0  0  0  0
    0.5663   -2.5870    1.0675 O   0  0  0  0  0  0  0  0  0  0  0  0
    1.7077   -0.6844    2.3077 O   0  0  0  0  0  0  0  0  0  0  0  0
   -6.1771    1.2156   -0.9106 O   0  0  0  0  0  0  0  0  0  0  0  0
   -5.8426    1.7041    1.2665 O   0  0  0  0  0  0  0  0  0  0  0  0
    0.9029   -0.2834   -1.0436 O   0  0  0  0  0  0  0  0  0  0  0  0
   -1.7288    0.8595    1.0619 H   0  0  0  0  0  0  0  0  0  0  0  0
   -3.0222    1.7570    0.3056 H   0  0  0  0  0  0  0  0  0  0  0  0
   -3.1558   -1.2716    0.9768 H   0  0  0  0  0  0  0  0  0  0  0  0
   -3.7147    0.0040    2.0570 H   0  0  0  0  0  0  0  0  0  0  0  0
   -2.1312   -1.6775   -0.9699 H   0  0  0  0  0  0  0  0  0  0  0  0
   -1.3350   -1.0073   -2.4217 H   0  0  0  0  0  0  0  0  0  0  0  0
    6.7644   -2.1027    0.6790 H   0  0  0  0  0  0  0  0  0  0  0  0
    2.0530    2.2046   -0.6024 H   0  0  0  0  0  0  0  0  0  0  0  0
   -1.3310    1.2424   -1.2760 H   0  0  0  0  0  0  0  0  0  0  0  0
   -5.4824   -1.1006    0.9774 H   0  0  0  0  0  0  0  0  0  0  0  0
    0.2257   -2.1498   -1.1953 H   0  0  0  0  0  0  0  0  0  0  0  0
   -0.9379   -1.2180    1.4118 H   0  0  0  0  0  0  0  0  0  0  0  0
    0.6398    0.6808    1.1233 H   0  0  0  0  0  0  0  0  0  0  0  0
    2.1848   -1.6157   -0.1130 H   0  0  0  0  0  0  0  0  0  0  0  0
   -3.3804    1.6839   -2.0406 H   0  0  0  0  0  0  0  0  0  0  0  0
   -3.0064    0.2124   -2.8649 H   0  0  0  0  0  0  0  0  0  0  0  0
   -4.8149   -2.1066   -0.8432 H   0  0  0  0  0  0  0  0  0  0  0  0
   -5.6290   -0.7537   -1.5792 H   0  0  0  0  0  0  0  0  0  0  0  0
    8.1573    2.1728   -0.5736 H   0  0  0  0  0  0  0  0  0  0  0  0
    6.8980    3.2163    0.2757 H   0  0  0  0  0  0  0  0  0  0  0  0
    0.3480   -3.2194    0.3279 H   0  0  0  0  0  0  0  0  0  0  0  0
    2.1319    0.1273    2.6832 H   0  0  0  0  0  0  0  0  0  0  0  0
   -6.7632    1.7109    1.7136 H   0  0  0  0  0  0  0  0  0  0  0  0
  1  2  1  0
  1  6  1  0
  3  6  1  0
  2  7  1  0
  8  3  1  0
  8 10  1  0
 10 11  1  0
  9 12  2  0
  9 13  1  0
 11 14  1  0
  7 15  1  0
  6 16  1  0
  7 17  1  0
 12 18  1  0
  4 19  2  0
 12 19  1  0
  4 20  1  0
 13 20  2  0
  5 21  2  0
  9 21  1  0
  5 22  1  0
 13 22  1  0
 14 22  1  0
 10 23  1  0
 11 24  1  0
 15 25  2  0
 15 26  1  0
  8 27  1  0
 14 27  1  0
  1 28  1  0
  1 29  1  0
  2 30  1  0
  2 31  1  0
  3 32  1  0
  3 33  1  0
  4 34  1  0
  5 35  1  0
  6 36  1  6
  7 37  1  1
  8 38  1  6
 10 39  1  1
 11 40  1  1
 14 41  1  6
 16 42  1  0
 16 43  1  0
 17 44  1  0
 17 45  1  0
 18 46  1  0
 18 47  1  0
 23 48  1  0
 24 49  1  0
 26 50  1  0
M  END

