46507770
     RDKit          3D

 26 28  0  0  0  0  0  0  0  0999 V2000
   -2.0856    2.4764    0.5945 N   0  0  0  0  0  0  0  0  0  0  0  0
   -1.8934    1.1537    1.0728 C   0  0  0  0  0  0  0  0  0  0  0  0
   -2.6938    0.5779    2.0454 C   0  0  0  0  0  0  0  0  0  0  0  0
   -2.4381   -0.7146    2.4542 C   0  0  0  0  0  0  0  0  0  0  0  0
   -1.4066   -1.4546    1.9229 C   0  0  0  0  0  0  0  0  0  0  0  0
   -0.6145   -0.8739    0.9550 C   0  0  0  0  0  0  0  0  0  0  0  0
   -0.8595    0.4198    0.5364 C   0  0  0  0  0  0  0  0  0  0  0  0
   -0.0731    1.0034   -0.4280 C   0  0  0  0  0  0  0  0  0  0  0  0
    0.9791    0.3037   -0.9968 C   0  0  0  0  0  0  0  0  0  0  0  0
    1.7508    0.9285   -1.9685 C   0  0  0  0  0  0  0  0  0  0  0  0
    2.7958    0.2414   -2.5373 C   0  0  0  0  0  0  0  0  0  0  0  0
    3.0279   -1.0481   -2.1097 C   0  0  0  0  0  0  0  0  0  0  0  0
    2.2665   -1.6697   -1.1484 C   0  0  0  0  0  0  0  0  0  0  0  0
    1.2144   -0.9848   -0.5724 C   0  0  0  0  0  0  0  0  0  0  0  0
    0.4223   -1.5945    0.4096 C   0  0  0  0  0  0  0  0  0  0  0  0
   -1.2601    3.1186    0.6229 H   0  0  0  0  0  0  0  0  0  0  0  0
   -3.0019    2.8078    0.2283 H   0  0  0  0  0  0  0  0  0  0  0  0
   -3.4980    1.1517    2.4612 H   0  0  0  0  0  0  0  0  0  0  0  0
   -3.0669   -1.1790    3.2242 H   0  0  0  0  0  0  0  0  0  0  0  0
   -1.1812   -2.4555    2.2157 H   0  0  0  0  0  0  0  0  0  0  0  0
   -0.2514    2.0187   -0.7686 H   0  0  0  0  0  0  0  0  0  0  0  0
    1.5062    1.9621   -2.2608 H   0  0  0  0  0  0  0  0  0  0  0  0
    3.4047    0.7137   -3.2940 H   0  0  0  0  0  0  0  0  0  0  0  0
    3.8509   -1.6103   -2.5474 H   0  0  0  0  0  0  0  0  0  0  0  0
    2.4356   -2.6819   -0.8013 H   0  0  0  0  0  0  0  0  0  0  0  0
    0.6701   -2.6105    0.6904 H   0  0  0  0  0  0  0  0  0  0  0  0
  1  2  1  0
  2  3  2  0
  3  4  1  0
  4  5  2  0
  5  6  1  0
  6  7  2  0
  2  7  1  0
  7  8  1  0
  8  9  2  0
  9 10  1  0
 10 11  2  0
 11 12  1  0
 12 13  2  0
 13 14  1  0
  9 14  1  0
 14 15  2  0
  6 15  1  0
  1 16  1  0
  1 17  1  0
  3 18  1  0
  4 19  1  0
  5 20  1  0
  8 21  1  0
 10 22  1  0
 11 23  1  0
 12 24  1  0
 13 25  1  0
 15 26  1  0
M  END

