46509056
     RDKit          3D

 34 37  0  0  1  0  0  0  0  0999 V2000
   -0.9092   -0.8895    0.2624 N   0  0  0  0  0  0  0  0  0  0  0  0
   -1.4420   -3.0245   -0.1506 N   0  0  0  0  0  0  0  0  0  0  0  0
   -3.2825   -1.6294    0.6836 N   0  0  0  0  0  0  0  0  0  0  0  0
    0.3463   -1.6444    0.3621 C   0  0  0  0  0  0  0  0  0  0  0  0
    1.4669   -0.8342   -0.0048 C   0  0  0  0  0  0  0  0  0  0  0  0
   -0.0082   -2.8336   -0.4567 C   0  0  0  0  0  0  0  0  0  0  0  0
   -1.2050    0.4853    0.1756 C   0  0  0  0  0  0  0  0  0  0  0  0
    1.7317    0.4553    0.4168 C   0  0  0  0  0  0  0  0  0  0  0  0
    0.9312    1.3652    1.3353 C   0  0  0  0  0  0  0  0  0  0  0  0
   -0.4128    1.5294    0.6663 C   0  0  0  0  0  0  0  0  0  0  0  0
   -1.9534   -1.8899    0.2670 C   0  0  0  0  0  0  0  0  0  0  0  0
    2.3541   -1.4865   -0.8742 C   0  0  0  0  0  0  0  0  0  0  0  0
    2.8678    1.1038   -0.0152 C   0  0  0  0  0  0  0  0  0  0  0  0
   -2.4022    0.7209   -0.4462 C   0  0  0  0  0  0  0  0  0  0  0  0
   -0.8345    2.8207    0.5298 C   0  0  0  0  0  0  0  0  0  0  0  0
    3.4641   -0.7808   -1.2634 C   0  0  0  0  0  0  0  0  0  0  0  0
    3.7618    0.4933   -0.8697 C   0  0  0  0  0  0  0  0  0  0  0  0
   -2.8206    2.0238   -0.5802 C   0  0  0  0  0  0  0  0  0  0  0  0
   -2.0539    3.0667   -0.1015 C   0  0  0  0  0  0  0  0  0  0  0  0
   -4.0974   -1.9909    0.1372 H   0  0  0  0  0  0  0  0  0  0  0  0
   -3.5304   -1.0754    1.5386 H   0  0  0  0  0  0  0  0  0  0  0  0
    0.4290   -1.9279    1.4412 H   0  0  0  0  0  0  0  0  0  0  0  0
    0.4972   -3.7213   -0.0367 H   0  0  0  0  0  0  0  0  0  0  0  0
    0.1763   -2.7969   -1.5188 H   0  0  0  0  0  0  0  0  0  0  0  0
    1.4382    2.3233    1.4040 H   0  0  0  0  0  0  0  0  0  0  0  0
    0.7995    0.8294    2.2755 H   0  0  0  0  0  0  0  0  0  0  0  0
    2.1374   -2.4937   -1.1935 H   0  0  0  0  0  0  0  0  0  0  0  0
    3.0617    2.1272    0.3302 H   0  0  0  0  0  0  0  0  0  0  0  0
   -3.0015   -0.0593   -0.8415 H   0  0  0  0  0  0  0  0  0  0  0  0
   -0.2108    3.6159    0.9152 H   0  0  0  0  0  0  0  0  0  0  0  0
    4.1534   -1.3025   -1.9459 H   0  0  0  0  0  0  0  0  0  0  0  0
    4.6532    1.0343   -1.1939 H   0  0  0  0  0  0  0  0  0  0  0  0
   -3.7554    2.2883   -1.0594 H   0  0  0  0  0  0  0  0  0  0  0  0
   -2.3501    4.0979   -0.1886 H   0  0  0  0  0  0  0  0  0  0  0  0
  1  4  1  0
  1  7  1  0
  1 11  1  0
  2  6  1  0
  2 11  2  0
  3 11  1  0
  4  5  1  0
  4  6  1  0
  5  8  2  0
  5 12  1  0
  7 10  2  0
  7 14  1  0
  8  9  1  0
  8 13  1  0
  9 10  1  0
 10 15  1  0
 12 16  2  0
 13 17  2  0
 14 18  2  0
 15 19  2  0
 16 17  1  0
 18 19  1  0
  3 20  1  0
  3 21  1  0
  4 22  1  0
  6 23  1  0
  6 24  1  0
  9 25  1  0
  9 26  1  0
 12 27  1  0
 13 28  1  0
 14 29  1  0
 15 30  1  0
 16 31  1  0
 17 32  1  0
 18 33  1  0
 19 34  1  0
M  END

