46504607
     RDKit          3D

 93 97  0  0  1  0  0  0  0  0999 V2000
   -5.6504   -2.0074    2.3931 C   0  0  0  0  0  0  0  0  0  0  0  0
   -6.4414    1.4964    1.6933 C   0  0  0  0  0  0  0  0  0  0  0  0
   -2.7041   -1.8519    2.7500 C   0  0  0  0  0  0  0  0  0  0  0  0
   -0.9177    3.8346   -0.4347 C   0  0  0  0  0  0  0  0  0  0  0  0
    6.2211   -0.4328    5.1785 C   0  0  0  0  0  0  0  0  0  0  0  0
   -4.6869   -3.0666    1.9539 C   0  0  0  0  0  0  0  0  0  0  0  0
   -0.5418    2.2882    1.3586 C   0  0  0  0  0  0  0  0  0  0  0  0
    4.9562   -0.6235   -1.8764 C   0  0  0  0  0  0  0  0  0  0  0  0
   -1.6994    2.0787    1.9706 C   0  0  0  0  0  0  0  0  0  0  0  0
    3.9158    0.6379    1.8786 C   0  0  0  0  0  0  0  0  0  0  0  0
   -0.0168    1.0993   -2.8008 C   0  0  0  0  0  0  0  0  0  0  0  0
    5.7389   -0.9977   -0.7857 C   0  0  0  0  0  0  0  0  0  0  0  0
   -1.3523    1.3792   -2.2051 C   0  0  0  0  0  0  0  0  0  0  0  0
    4.6764    0.2843    2.9681 C   0  0  0  0  0  0  0  0  0  0  0  0
   -4.1205    2.1700    1.6758 C   0  0  0  0  0  0  0  0  0  0  0  0
   -5.1982    1.2461   -0.3989 C   0  0  0  0  0  0  0  0  0  0  0  0
    3.5056    0.5685   -0.4697 C   0  0  0  0  0  0  0  0  0  0  0  0
   -0.1638   -1.4157   -2.8784 C   0  0  0  0  0  0  0  0  0  0  0  0
    0.9756   -1.8597   -4.9988 C   0  0  0  0  0  0  0  0  0  0  0  0
    2.9849    0.5792   -2.9048 C   0  0  0  0  0  0  0  0  0  0  0  0
    7.3623   -1.7891    1.3519 C   0  0  0  0  0  0  0  0  0  0  0  0
   -5.3188    2.0807    0.8353 C   0  0  1  0  0  0  0  0  0  0  0  0
   -3.3318   -2.5432    1.5652 C   0  0  1  0  0  0  0  0  0  0  0  0
   -0.5080    2.4361   -0.1445 C   0  0  1  0  0  0  0  0  0  0  0  0
    3.8318    0.1599   -1.7504 C   0  0  0  0  0  0  0  0  0  0  0  0
    4.2866    0.1974    0.6275 C   0  0  0  0  0  0  0  0  0  0  0  0
   -2.8896    1.9989    1.1909 C   0  0  0  0  0  0  0  0  0  0  0  0
    0.5960   -0.1934   -2.4887 C   0  0  1  0  0  0  0  0  0  0  0  0
   -0.3575   -1.5941   -4.3625 C   0  0  2  0  0  0  0  0  0  0  0  0
   -1.4375    1.3792   -0.7215 C   0  0  1  0  0  0  0  0  0  0  0  0
    5.4033   -0.5859    0.4680 C   0  0  0  0  0  0  0  0  0  0  0  0
    6.1707   -0.9448    1.5547 C   0  0  0  0  0  0  0  0  0  0  0  0
    5.8111   -0.5108    2.8123 C   0  0  0  0  0  0  0  0  0  0  0  0
   -3.8426    0.6175   -0.4692 C   0  0  1  0  0  0  0  0  0  0  0  0
    2.0560   -1.4032   -4.0978 C   0  0  0  0  0  0  0  0  0  0  0  0
   -2.8140    1.7003   -0.2655 C   0  0  1  0  0  0  0  0  0  0  0  0
   -3.4259   -1.6449    0.3867 C   0  0  0  0  0  0  0  0  0  0  0  0
    1.8982   -0.3343   -3.1754 N   0  0  0  0  0  0  0  0  0  0  0  0
    8.0259   -2.0561    2.5488 O   0  0  0  0  0  0  0  0  0  0  0  0
   -1.0377   -0.5314   -4.9588 O   0  0  0  0  0  0  0  0  0  0  0  0
    3.1651   -2.0164   -4.1768 O   0  0  0  0  0  0  0  0  0  0  0  0
   -3.2542   -2.0443   -0.7822 O   0  0  0  0  0  0  0  0  0  0  0  0
    6.6076   -0.8920    3.8781 O   0  0  0  0  0  0  0  0  0  0  0  0
   -3.7206   -0.3056    0.5973 O   0  0  0  0  0  0  0  0  0  0  0  0
   -5.3649   -1.4442    3.2824 H   0  0  0  0  0  0  0  0  0  0  0  0
   -6.6099   -2.5485    2.6273 H   0  0  0  0  0  0  0  0  0  0  0  0
   -5.9337   -1.3412    1.5257 H   0  0  0  0  0  0  0  0  0  0  0  0
   -6.9588    2.3189    2.2385 H   0  0  0  0  0  0  0  0  0  0  0  0
   -7.1694    0.9143    1.1310 H   0  0  0  0  0  0  0  0  0  0  0  0
   -6.0059    0.8466    2.4876 H   0  0  0  0  0  0  0  0  0  0  0  0
   -3.3957   -1.7934    3.6347 H   0  0  0  0  0  0  0  0  0  0  0  0
   -2.4456   -0.7897    2.5038 H   0  0  0  0  0  0  0  0  0  0  0  0
   -1.8222   -2.4312    3.1012 H   0  0  0  0  0  0  0  0  0  0  0  0
   -1.5282    4.3084    0.3584 H   0  0  0  0  0  0  0  0  0  0  0  0
   -1.4251    4.0196   -1.3813 H   0  0  0  0  0  0  0  0  0  0  0  0
    0.0150    4.4621   -0.4741 H   0  0  0  0  0  0  0  0  0  0  0  0
    6.2470    0.6900    5.1347 H   0  0  0  0  0  0  0  0  0  0  0  0
    6.9496   -0.8377    5.8905 H   0  0  0  0  0  0  0  0  0  0  0  0
    5.2129   -0.8201    5.4153 H   0  0  0  0  0  0  0  0  0  0  0  0
   -4.5358   -3.7911    2.7883 H   0  0  0  0  0  0  0  0  0  0  0  0
   -5.1577   -3.6455    1.1261 H   0  0  0  0  0  0  0  0  0  0  0  0
    0.3999    2.3643    1.8729 H   0  0  0  0  0  0  0  0  0  0  0  0
    5.2727   -0.9721   -2.8488 H   0  0  0  0  0  0  0  0  0  0  0  0
   -1.7409    1.9719    3.0369 H   0  0  0  0  0  0  0  0  0  0  0  0
    3.0571    1.2441    2.0180 H   0  0  0  0  0  0  0  0  0  0  0  0
    0.6735    1.9363   -2.4635 H   0  0  0  0  0  0  0  0  0  0  0  0
   -0.0852    1.2581   -3.8928 H   0  0  0  0  0  0  0  0  0  0  0  0
    6.6275   -1.6189   -0.8924 H   0  0  0  0  0  0  0  0  0  0  0  0
   -1.6672    2.3954   -2.5601 H   0  0  0  0  0  0  0  0  0  0  0  0
   -2.0796    0.6988   -2.6934 H   0  0  0  0  0  0  0  0  0  0  0  0
    4.4362    0.6002    3.9843 H   0  0  0  0  0  0  0  0  0  0  0  0
   -4.2114    2.3779    2.7127 H   0  0  0  0  0  0  0  0  0  0  0  0
   -5.4056    1.8601   -1.3330 H   0  0  0  0  0  0  0  0  0  0  0  0
   -5.9654    0.4059   -0.4064 H   0  0  0  0  0  0  0  0  0  0  0  0
    2.6404    1.1751   -0.3448 H   0  0  0  0  0  0  0  0  0  0  0  0
   -1.1137   -1.5605   -2.3837 H   0  0  0  0  0  0  0  0  0  0  0  0
    0.4830   -2.2976   -2.5771 H   0  0  0  0  0  0  0  0  0  0  0  0
    1.0527   -2.9780   -5.1471 H   0  0  0  0  0  0  0  0  0  0  0  0
    1.0888   -1.3424   -5.9825 H   0  0  0  0  0  0  0  0  0  0  0  0
    3.6831    0.6139   -3.7736 H   0  0  0  0  0  0  0  0  0  0  0  0
    2.6499    1.6311   -2.7643 H   0  0  0  0  0  0  0  0  0  0  0  0
    7.1106   -2.7634    0.8794 H   0  0  0  0  0  0  0  0  0  0  0  0
    8.0962   -1.3071    0.6743 H   0  0  0  0  0  0  0  0  0  0  0  0
   -5.6498    3.1302    0.5769 H   0  0  0  0  0  0  0  0  0  0  0  0
   -2.7352   -3.4646    1.2928 H   0  0  0  0  0  0  0  0  0  0  0  0
    0.5332    2.2800   -0.4516 H   0  0  0  0  0  0  0  0  0  0  0  0
    0.8355   -0.2539   -1.4077 H   0  0  0  0  0  0  0  0  0  0  0  0
   -0.9978   -2.5315   -4.4512 H   0  0  0  0  0  0  0  0  0  0  0  0
   -1.1315    0.4246   -0.2502 H   0  0  0  0  0  0  0  0  0  0  0  0
   -3.7318    0.1250   -1.4575 H   0  0  0  0  0  0  0  0  0  0  0  0
   -3.2253    2.6292   -0.7659 H   0  0  0  0  0  0  0  0  0  0  0  0
    8.9869   -2.2591    2.3948 H   0  0  0  0  0  0  0  0  0  0  0  0
   -0.7166   -0.4779   -5.8781 H   0  0  0  0  0  0  0  0  0  0  0  0
  1  6  1  0
  7  9  2  0
  8 12  2  0
 11 13  1  0
 10 14  2  0
 22  2  1  0
 15 22  1  0
 16 22  1  0
 23  3  1  0
  6 23  1  0
 24  4  1  0
  7 24  1  0
  8 25  1  0
 17 25  2  0
 20 25  1  0
 10 26  1  0
 17 26  1  0
  9 27  1  0
 15 27  2  0
 28 11  1  0
 18 28  1  0
 18 29  1  0
 19 29  1  0
 30 13  1  0
 24 30  1  0
 12 31  1  0
 26 31  2  0
 21 32  1  0
 31 32  1  0
 14 33  1  0
 32 33  2  0
 16 34  1  0
 19 35  1  0
 27 36  1  0
 30 36  1  0
 34 36  1  0
 23 37  1  0
 20 38  1  0
 28 38  1  0
 35 38  1  0
 21 39  1  0
 29 40  1  0
 35 41  2  0
 37 42  2  0
  5 43  1  0
 33 43  1  0
 34 44  1  0
 37 44  1  0
  1 45  1  0
  1 46  1  0
  1 47  1  0
  2 48  1  0
  2 49  1  0
  2 50  1  0
  3 51  1  0
  3 52  1  0
  3 53  1  0
  4 54  1  0
  4 55  1  0
  4 56  1  0
  5 57  1  0
  5 58  1  0
  5 59  1  0
  6 60  1  0
  6 61  1  0
  7 62  1  0
  8 63  1  0
  9 64  1  0
 10 65  1  0
 11 66  1  0
 11 67  1  0
 12 68  1  0
 13 69  1  0
 13 70  1  0
 14 71  1  0
 15 72  1  0
 16 73  1  0
 16 74  1  0
 17 75  1  0
 18 76  1  0
 18 77  1  0
 19 78  1  0
 19 79  1  0
 20 80  1  0
 20 81  1  0
 21 82  1  0
 21 83  1  0
 22 84  1  6
 23 85  1  6
 24 86  1  6
 28 87  1  1
 29 88  1  1
 30 89  1  1
 34 90  1  6
 36 91  1  6
 39 92  1  0
 40 93  1  0
M  END

