46506943
     RDKit          3D

 28 29  0  0  1  0  0  0  0  0999 V2000
    1.7080    0.2769    0.7618 O   0  0  0  0  0  0  0  0  0  0  0  0
    4.1728    0.9246   -0.5473 O   0  0  0  0  0  0  0  0  0  0  0  0
    0.3107    2.2310    0.7341 O   0  0  0  0  0  0  0  0  0  0  0  0
   -4.1039    2.1213   -0.2777 O   0  0  0  0  0  0  0  0  0  0  0  0
   -0.6045    0.2300    0.3186 N   0  0  0  0  0  0  0  0  0  0  0  0
   -1.9122    2.1802    0.2251 N   0  0  0  0  0  0  0  0  0  0  0  0
    0.6083   -0.5080    0.5167 C   0  0  1  0  0  0  0  0  0  0  0  0
    2.7504   -0.6348    0.5972 C   0  0  1  0  0  0  0  0  0  0  0  0
    1.0274   -1.2509   -0.7193 C   0  0  0  0  0  0  0  0  0  0  0  0
    2.3700   -1.3205   -0.6515 C   0  0  0  0  0  0  0  0  0  0  0  0
    4.0919    0.0494    0.5073 C   0  0  0  0  0  0  0  0  0  0  0  0
   -1.7149   -0.4568   -0.0044 C   0  0  0  0  0  0  0  0  0  0  0  0
   -0.7160    1.5649    0.4322 C   0  0  0  0  0  0  0  0  0  0  0  0
   -2.9396    0.1213   -0.2218 C   0  0  0  0  0  0  0  0  0  0  0  0
   -3.0245    1.4922   -0.0985 C   0  0  0  0  0  0  0  0  0  0  0  0
   -4.1532   -0.6752   -0.5797 C   0  0  0  0  0  0  0  0  0  0  0  0
    3.3443    0.9099   -1.1025 H   0  0  0  0  0  0  0  0  0  0  0  0
   -1.9318    3.2079    0.3275 H   0  0  0  0  0  0  0  0  0  0  0  0
    0.4760   -1.2187    1.3561 H   0  0  0  0  0  0  0  0  0  0  0  0
    2.6919   -1.3335    1.4553 H   0  0  0  0  0  0  0  0  0  0  0  0
    0.3537   -1.6187   -1.4552 H   0  0  0  0  0  0  0  0  0  0  0  0
    2.9461   -1.8052   -1.4154 H   0  0  0  0  0  0  0  0  0  0  0  0
    4.8668   -0.7308    0.3594 H   0  0  0  0  0  0  0  0  0  0  0  0
    4.3032    0.5214    1.4808 H   0  0  0  0  0  0  0  0  0  0  0  0
   -1.6711   -1.5516   -0.1083 H   0  0  0  0  0  0  0  0  0  0  0  0
   -3.9548   -1.3350   -1.4557 H   0  0  0  0  0  0  0  0  0  0  0  0
   -4.2963   -1.3914    0.2822 H   0  0  0  0  0  0  0  0  0  0  0  0
   -4.9986    0.0000   -0.7169 H   0  0  0  0  0  0  0  0  0  0  0  0
  1  7  1  0
  1  8  1  0
  2 11  1  0
  3 13  2  0
  4 15  2  0
  7  5  1  0
  5 12  1  0
  5 13  1  0
  6 13  1  0
  6 15  1  0
  7  9  1  0
  8 10  1  0
  8 11  1  0
  9 10  2  0
 12 14  2  0
 14 15  1  0
 14 16  1  0
  2 17  1  0
  6 18  1  0
  7 19  1  1
  8 20  1  1
  9 21  1  0
 10 22  1  0
 11 23  1  0
 11 24  1  0
 12 25  1  0
 16 26  1  0
 16 27  1  0
 16 28  1  0
M  END

