46507129
     RDKit          3D

 56 59  0  0  0  0  0  0  0  0999 V2000
   -5.0548    3.6305    2.6753 F   0  0  0  0  0  0  0  0  0  0  0  0
   -5.4009   -5.0313   -0.4786 F   0  0  0  0  0  0  0  0  0  0  0  0
   -1.6932    0.1174   -1.1377 N   0  0  0  0  0  0  0  0  0  0  0  0
    1.0833    0.1328   -1.4133 N   0  0  0  0  0  0  0  0  0  0  0  0
   -1.0507   -0.7922   -2.0261 C   0  0  0  0  0  0  0  0  0  0  0  0
   -0.9423    1.3156   -0.8943 C   0  0  0  0  0  0  0  0  0  0  0  0
   -2.2239   -0.4330    0.0597 C   0  0  0  0  0  0  0  0  0  0  0  0
    0.2091   -0.1240   -2.5358 C   0  0  0  0  0  0  0  0  0  0  0  0
    0.4364    0.9428   -0.4023 C   0  0  0  0  0  0  0  0  0  0  0  0
    2.2757    0.8308   -1.8432 C   0  0  0  0  0  0  0  0  0  0  0  0
   -2.9567    0.6452    0.7919 C   0  0  0  0  0  0  0  0  0  0  0  0
   -3.0591   -1.6393   -0.1046 C   0  0  0  0  0  0  0  0  0  0  0  0
    3.2077    0.9053   -0.6914 C   0  0  0  0  0  0  0  0  0  0  0  0
   -3.8280    1.4883    0.1004 C   0  0  0  0  0  0  0  0  0  0  0  0
   -3.9902   -1.7566   -1.1239 C   0  0  0  0  0  0  0  0  0  0  0  0
   -2.7690    0.7855    2.1368 C   0  0  0  0  0  0  0  0  0  0  0  0
   -2.9530   -2.7158    0.7810 C   0  0  0  0  0  0  0  0  0  0  0  0
   -4.5233    2.4743    0.7115 C   0  0  0  0  0  0  0  0  0  0  0  0
   -4.7677   -2.8972   -1.2385 C   0  0  0  0  0  0  0  0  0  0  0  0
   -3.4876    1.8057    2.7693 C   0  0  0  0  0  0  0  0  0  0  0  0
   -3.7067   -3.8536    0.6927 C   0  0  0  0  0  0  0  0  0  0  0  0
    4.3841    0.3401   -0.8616 C   0  0  0  0  0  0  0  0  0  0  0  0
   -4.3509    2.6425    2.0884 C   0  0  0  0  0  0  0  0  0  0  0  0
   -4.6243   -3.9328   -0.3372 C   0  0  0  0  0  0  0  0  0  0  0  0
    5.3668    0.3607    0.2131 C   0  0  0  0  0  0  0  0  0  0  0  0
    6.6231   -0.2334    0.0111 C   0  0  0  0  0  0  0  0  0  0  0  0
    5.1456    0.9302    1.4485 C   0  0  0  0  0  0  0  0  0  0  0  0
    7.5590   -0.2321    1.0065 C   0  0  0  0  0  0  0  0  0  0  0  0
    6.0708    0.9476    2.4740 C   0  0  0  0  0  0  0  0  0  0  0  0
    7.2922    0.3575    2.2453 C   0  0  0  0  0  0  0  0  0  0  0  0
   -1.7206   -1.0375   -2.8682 H   0  0  0  0  0  0  0  0  0  0  0  0
   -0.7489   -1.6874   -1.4797 H   0  0  0  0  0  0  0  0  0  0  0  0
   -1.4376    1.9059   -0.0688 H   0  0  0  0  0  0  0  0  0  0  0  0
   -0.8943    1.9479   -1.8180 H   0  0  0  0  0  0  0  0  0  0  0  0
   -1.3574   -0.7594    0.7104 H   0  0  0  0  0  0  0  0  0  0  0  0
   -0.0145    0.7409   -3.1639 H   0  0  0  0  0  0  0  0  0  0  0  0
    0.7436   -0.9032   -3.1508 H   0  0  0  0  0  0  0  0  0  0  0  0
    1.0248    1.8622   -0.1608 H   0  0  0  0  0  0  0  0  0  0  0  0
    0.3093    0.3724    0.5468 H   0  0  0  0  0  0  0  0  0  0  0  0
    2.7152    0.3359   -2.7372 H   0  0  0  0  0  0  0  0  0  0  0  0
    2.0376    1.9110   -2.0859 H   0  0  0  0  0  0  0  0  0  0  0  0
    2.8956    1.3987    0.1978 H   0  0  0  0  0  0  0  0  0  0  0  0
   -3.9023    1.2856   -0.9779 H   0  0  0  0  0  0  0  0  0  0  0  0
   -4.1147   -0.9399   -1.8502 H   0  0  0  0  0  0  0  0  0  0  0  0
   -2.1115    0.1712    2.7363 H   0  0  0  0  0  0  0  0  0  0  0  0
   -2.2352   -2.6581    1.5907 H   0  0  0  0  0  0  0  0  0  0  0  0
   -5.1895    3.1050    0.1292 H   0  0  0  0  0  0  0  0  0  0  0  0
   -5.4807   -2.9186   -2.0680 H   0  0  0  0  0  0  0  0  0  0  0  0
   -3.3710    1.9539    3.8348 H   0  0  0  0  0  0  0  0  0  0  0  0
   -3.5850   -4.6726    1.4168 H   0  0  0  0  0  0  0  0  0  0  0  0
    4.6563   -0.1528   -1.7936 H   0  0  0  0  0  0  0  0  0  0  0  0
    6.8023   -0.6796   -0.9538 H   0  0  0  0  0  0  0  0  0  0  0  0
    4.1881    1.4045    1.6599 H   0  0  0  0  0  0  0  0  0  0  0  0
    8.5318   -0.7076    0.8105 H   0  0  0  0  0  0  0  0  0  0  0  0
    5.8987    1.3917    3.4398 H   0  0  0  0  0  0  0  0  0  0  0  0
    8.0883    0.3182    2.9870 H   0  0  0  0  0  0  0  0  0  0  0  0
  1 23  1  0
  2 24  1  0
  3  5  1  0
  3  6  1  0
  3  7  1  0
  4  8  1  0
  4  9  1  0
  4 10  1  0
  5  8  1  0
  6  9  1  0
  7 11  1  0
  7 12  1  0
 10 13  1  0
 11 14  2  0
 11 16  1  0
 12 15  2  0
 12 17  1  0
 13 22  2  0
 14 18  1  0
 15 19  1  0
 16 20  2  0
 17 21  2  0
 18 23  2  0
 19 24  2  0
 20 23  1  0
 21 24  1  0
 22 25  1  0
 25 26  2  0
 25 27  1  0
 26 28  1  0
 27 29  2  0
 28 30  2  0
 29 30  1  0
  5 31  1  0
  5 32  1  0
  6 33  1  0
  6 34  1  0
  7 35  1  0
  8 36  1  0
  8 37  1  0
  9 38  1  0
  9 39  1  0
 10 40  1  0
 10 41  1  0
 13 42  1  0
 14 43  1  0
 15 44  1  0
 16 45  1  0
 17 46  1  0
 18 47  1  0
 19 48  1  0
 20 49  1  0
 21 50  1  0
 22 51  1  0
 26 52  1  0
 27 53  1  0
 28 54  1  0
 29 55  1  0
 30 56  1  0
M  END

