46508545
     RDKit          3D

 23 23  0  0  0  0  0  0  0  0999 V2000
    2.3481   -0.5918    0.8602 C   0  0  0  0  0  0  0  0  0  0  0  0
    2.4197   -1.1034   -0.5249 C   0  0  0  0  0  0  0  0  0  0  0  0
    1.4205   -1.7057   -0.9883 O   0  0  0  0  0  0  0  0  0  0  0  0
    3.5722   -0.9025   -1.2536 O   0  0  0  0  0  0  0  0  0  0  0  0
    1.5472    0.7052    0.9555 C   0  0  0  0  0  0  0  0  0  0  0  0
    0.1605    0.5242    0.4945 C   0  0  0  0  0  0  0  0  0  0  0  0
   -0.2276    0.7087   -0.8193 C   0  0  0  0  0  0  0  0  0  0  0  0
   -0.8287    0.1498    1.3959 C   0  0  0  0  0  0  0  0  0  0  0  0
   -1.5439    0.5296   -1.2244 C   0  0  0  0  0  0  0  0  0  0  0  0
   -2.1409   -0.0296    0.9951 C   0  0  0  0  0  0  0  0  0  0  0  0
   -2.5188    0.1571   -0.3184 C   0  0  0  0  0  0  0  0  0  0  0  0
   -3.8730   -0.0338   -0.7026 N   0  0  0  0  0  0  0  0  0  0  0  0
    3.3721   -0.4053    1.2393 H   0  0  0  0  0  0  0  0  0  0  0  0
    1.8740   -1.3168    1.5558 H   0  0  0  0  0  0  0  0  0  0  0  0
    4.3236   -0.3407   -0.9111 H   0  0  0  0  0  0  0  0  0  0  0  0
    2.0707    1.5438    0.4375 H   0  0  0  0  0  0  0  0  0  0  0  0
    1.5822    0.9781    2.0468 H   0  0  0  0  0  0  0  0  0  0  0  0
    0.5000    0.9962   -1.5405 H   0  0  0  0  0  0  0  0  0  0  0  0
   -0.5156    0.0072    2.4313 H   0  0  0  0  0  0  0  0  0  0  0  0
   -1.8612    0.6686   -2.2417 H   0  0  0  0  0  0  0  0  0  0  0  0
   -2.8802   -0.3218    1.7269 H   0  0  0  0  0  0  0  0  0  0  0  0
   -4.3603   -0.9660   -0.6338 H   0  0  0  0  0  0  0  0  0  0  0  0
   -4.4406    0.7490   -1.0704 H   0  0  0  0  0  0  0  0  0  0  0  0
  1  2  1  0
  1  5  1  0
  2  3  2  0
  2  4  1  0
  5  6  1  0
  6  7  2  0
  6  8  1  0
  7  9  1  0
  8 10  2  0
  9 11  2  0
 10 11  1  0
 11 12  1  0
  1 13  1  0
  1 14  1  0
  4 15  1  0
  5 16  1  0
  5 17  1  0
  7 18  1  0
  8 19  1  0
  9 20  1  0
 10 21  1  0
 12 22  1  0
 12 23  1  0
M  END

