46508717
     RDKit          3D

 74 77  0  0  1  0  0  0  0  0999 V2000
   -1.3977    0.5959    2.4098 O   0  0  0  0  0  0  0  0  0  0  0  0
   -0.1958    2.0704   -0.9172 O   0  0  0  0  0  0  0  0  0  0  0  0
   -2.0732    3.8389   -3.8664 O   0  0  0  0  0  0  0  0  0  0  0  0
   -3.8023   -4.2280    1.3490 O   0  0  0  0  0  0  0  0  0  0  0  0
   -3.9122   -4.2853   -2.8689 O   0  0  0  0  0  0  0  0  0  0  0  0
   -3.8237   -4.9656   -0.7839 O   0  0  0  0  0  0  0  0  0  0  0  0
    0.6567    0.9621    3.2915 N   0  0  0  0  0  0  0  0  0  0  0  0
   -1.6551    2.5970    0.7584 N   0  0  0  0  0  0  0  0  0  0  0  0
   -1.8445    1.7918   -2.8543 N   0  0  0  0  0  0  0  0  0  0  0  0
   -0.5541    2.6417    1.6658 C   0  0  1  0  0  0  0  0  0  0  0  0
   -0.5662    3.8011    2.5936 C   0  0  0  0  0  0  0  0  0  0  0  0
    0.7844    3.9937    3.2708 C   0  0  0  0  0  0  0  0  0  0  0  0
    0.9560    3.0578    4.4319 C   0  0  0  0  0  0  0  0  0  0  0  0
    1.5866    1.7570    4.0532 C   0  0  0  0  0  0  0  0  0  0  0  0
   -0.4188    1.3850    2.4714 C   0  0  0  0  0  0  0  0  0  0  0  0
    0.8623   -0.5068    3.3797 C   0  0  0  0  0  0  0  0  0  0  0  0
   -2.4680    2.2481   -1.6489 C   0  0  2  0  0  0  0  0  0  0  0  0
   -1.4286    2.3017   -0.6098 C   0  0  0  0  0  0  0  0  0  0  0  0
    1.7986   -0.9296    2.2827 C   0  0  0  0  0  0  0  0  0  0  0  0
   -3.7410    1.5850   -1.3075 C   0  0  0  0  0  0  0  0  0  0  0  0
    3.1710   -0.9507    2.4571 C   0  0  0  0  0  0  0  0  0  0  0  0
    1.2877   -1.3055    1.0567 C   0  0  0  0  0  0  0  0  0  0  0  0
   -3.7307    0.1491   -1.0696 C   0  0  0  0  0  0  0  0  0  0  0  0
    3.9725   -1.3487    1.3983 C   0  0  0  0  0  0  0  0  0  0  0  0
    2.1077   -1.7020    0.0025 C   0  0  0  0  0  0  0  0  0  0  0  0
    3.4830   -1.7264    0.1724 C   0  0  0  0  0  0  0  0  0  0  0  0
   -3.7683   -0.7840   -2.0601 C   0  0  0  0  0  0  0  0  0  0  0  0
   -3.7232   -0.2818    0.2362 C   0  0  0  0  0  0  0  0  0  0  0  0
   -1.6789    2.6585   -3.9437 C   0  0  0  0  0  0  0  0  0  0  0  0
   -3.7993   -2.1623   -1.7678 C   0  0  0  0  0  0  0  0  0  0  0  0
    4.3604   -2.1375   -0.9430 C   0  0  0  0  0  0  0  0  0  0  0  0
   -3.7511   -1.6117    0.5744 C   0  0  0  0  0  0  0  0  0  0  0  0
   -3.7893   -2.5638   -0.4506 C   0  0  0  0  0  0  0  0  0  0  0  0
   -1.0386    2.1760   -5.1845 C   0  0  0  0  0  0  0  0  0  0  0  0
    5.5592   -2.7749   -0.7469 C   0  0  0  0  0  0  0  0  0  0  0  0
    3.9507   -1.8692   -2.2335 C   0  0  0  0  0  0  0  0  0  0  0  0
   -3.8533   -3.0672   -2.9046 C   0  0  0  0  0  0  0  0  0  0  0  0
   -3.8064   -3.9518   -0.0533 C   0  0  0  0  0  0  0  0  0  0  0  0
    6.3862   -3.1669   -1.7619 C   0  0  0  0  0  0  0  0  0  0  0  0
    4.7515   -2.2472   -3.2849 C   0  0  0  0  0  0  0  0  0  0  0  0
    5.9486   -2.8845   -3.0494 C   0  0  0  0  0  0  0  0  0  0  0  0
   -3.1024   -4.8932    1.6838 H   0  0  0  0  0  0  0  0  0  0  0  0
   -2.6025    2.7825    1.1359 H   0  0  0  0  0  0  0  0  0  0  0  0
   -1.5040    0.8125   -2.9226 H   0  0  0  0  0  0  0  0  0  0  0  0
    0.3805    2.6976    1.0419 H   0  0  0  0  0  0  0  0  0  0  0  0
   -1.3175    3.6674    3.4217 H   0  0  0  0  0  0  0  0  0  0  0  0
   -0.8662    4.7598    2.0984 H   0  0  0  0  0  0  0  0  0  0  0  0
    0.7813    5.0331    3.7154 H   0  0  0  0  0  0  0  0  0  0  0  0
    1.5707    3.8994    2.5276 H   0  0  0  0  0  0  0  0  0  0  0  0
   -0.0311    2.8757    4.9207 H   0  0  0  0  0  0  0  0  0  0  0  0
    1.6125    3.5476    5.1803 H   0  0  0  0  0  0  0  0  0  0  0  0
    2.4736    1.9604    3.3815 H   0  0  0  0  0  0  0  0  0  0  0  0
    1.9879    1.2060    4.9309 H   0  0  0  0  0  0  0  0  0  0  0  0
    1.2374   -0.8008    4.3777 H   0  0  0  0  0  0  0  0  0  0  0  0
   -0.1369   -0.9680    3.2532 H   0  0  0  0  0  0  0  0  0  0  0  0
   -2.7443    3.3470   -1.8297 H   0  0  0  0  0  0  0  0  0  0  0  0
   -4.1393    2.1156   -0.3860 H   0  0  0  0  0  0  0  0  0  0  0  0
   -4.5442    1.8230   -2.0781 H   0  0  0  0  0  0  0  0  0  0  0  0
    3.6108   -0.6622    3.4000 H   0  0  0  0  0  0  0  0  0  0  0  0
    0.2054   -1.2909    0.9156 H   0  0  0  0  0  0  0  0  0  0  0  0
    5.0385   -1.3615    1.5488 H   0  0  0  0  0  0  0  0  0  0  0  0
    1.6935   -1.9891   -0.9520 H   0  0  0  0  0  0  0  0  0  0  0  0
   -3.7767   -0.5025   -3.1162 H   0  0  0  0  0  0  0  0  0  0  0  0
   -3.7083    0.4233    1.0756 H   0  0  0  0  0  0  0  0  0  0  0  0
   -3.7438   -1.9601    1.5905 H   0  0  0  0  0  0  0  0  0  0  0  0
   -1.3973    2.7088   -6.1076 H   0  0  0  0  0  0  0  0  0  0  0  0
    0.0670    2.2877   -5.1911 H   0  0  0  0  0  0  0  0  0  0  0  0
   -1.2151    1.0648   -5.3219 H   0  0  0  0  0  0  0  0  0  0  0  0
    5.8313   -2.9615    0.3019 H   0  0  0  0  0  0  0  0  0  0  0  0
    3.0081   -1.3663   -2.3918 H   0  0  0  0  0  0  0  0  0  0  0  0
   -3.8403   -2.6492   -3.9304 H   0  0  0  0  0  0  0  0  0  0  0  0
    7.3219   -3.6668   -1.5883 H   0  0  0  0  0  0  0  0  0  0  0  0
    4.4759   -2.0645   -4.3240 H   0  0  0  0  0  0  0  0  0  0  0  0
    6.5709   -3.1759   -3.9068 H   0  0  0  0  0  0  0  0  0  0  0  0
  1 15  2  0
  2 18  2  0
  3 29  2  0
  4 38  1  0
  5 37  2  0
  6 38  2  0
  7 14  1  0
  7 15  1  0
  7 16  1  0
 10  8  1  0
  8 18  1  0
 17  9  1  0
  9 29  1  0
 10 11  1  0
 10 15  1  0
 11 12  1  0
 12 13  1  0
 13 14  1  0
 16 19  1  0
 17 18  1  0
 17 20  1  0
 19 21  2  0
 19 22  1  0
 20 23  1  0
 21 24  1  0
 22 25  2  0
 23 27  2  0
 23 28  1  0
 24 26  2  0
 25 26  1  0
 26 31  1  0
 27 30  1  0
 28 32  2  0
 29 34  1  0
 30 33  2  0
 30 37  1  0
 31 35  2  0
 31 36  1  0
 32 33  1  0
 33 38  1  0
 35 39  1  0
 36 40  2  0
 39 41  2  0
 40 41  1  0
  4 42  1  0
  8 43  1  0
  9 44  1  0
 10 45  1  6
 11 46  1  0
 11 47  1  0
 12 48  1  0
 12 49  1  0
 13 50  1  0
 13 51  1  0
 14 52  1  0
 14 53  1  0
 16 54  1  0
 16 55  1  0
 17 56  1  6
 20 57  1  0
 20 58  1  0
 21 59  1  0
 22 60  1  0
 24 61  1  0
 25 62  1  0
 27 63  1  0
 28 64  1  0
 32 65  1  0
 34 66  1  0
 34 67  1  0
 34 68  1  0
 35 69  1  0
 36 70  1  0
 37 71  1  0
 39 72  1  0
 40 73  1  0
 41 74  1  0
M  END

