46508052
     RDKit          3D

 28 29  0  0  1  0  0  0  0  0999 V2000
    2.5968   -0.3452    0.7665 C   0  0  0  0  0  0  0  0  0  0  0  0
    2.2723   -0.6997    1.9259 O   0  0  0  0  0  0  0  0  0  0  0  0
    2.0113   -1.0253   -0.4262 C   0  0  2  0  0  0  0  0  0  0  0  0
    1.2629   -0.0177   -1.2907 C   0  0  0  0  0  0  0  0  0  0  0  0
    1.1474   -2.0796    0.0654 N   0  0  0  0  0  0  0  0  0  0  0  0
    0.1542    0.6350   -0.5860 C   0  0  0  0  0  0  0  0  0  0  0  0
    0.1823    1.9006    0.0111 C   0  0  0  0  0  0  0  0  0  0  0  0
   -1.0015    2.1588    0.5831 N   0  0  0  0  0  0  0  0  0  0  0  0
   -1.8062    1.0922    0.3750 C   0  0  0  0  0  0  0  0  0  0  0  0
   -1.1115    0.1400   -0.3458 C   0  0  0  0  0  0  0  0  0  0  0  0
   -1.7611   -1.0266   -0.6716 C   0  0  0  0  0  0  0  0  0  0  0  0
   -3.1205    0.8688    0.7567 C   0  0  0  0  0  0  0  0  0  0  0  0
   -3.7766   -0.3015    0.4326 C   0  0  0  0  0  0  0  0  0  0  0  0
   -3.0809   -1.2292   -0.2782 C   0  0  0  0  0  0  0  0  0  0  0  0
    3.5337    0.7174    0.6451 N   0  0  0  0  0  0  0  0  0  0  0  0
    2.8269   -1.5075   -0.9986 H   0  0  0  0  0  0  0  0  0  0  0  0
    2.0276    0.7671   -1.5254 H   0  0  0  0  0  0  0  0  0  0  0  0
    0.9912   -0.4479   -2.2667 H   0  0  0  0  0  0  0  0  0  0  0  0
    0.6211   -1.7285    0.9135 H   0  0  0  0  0  0  0  0  0  0  0  0
    1.6998   -2.9172    0.3380 H   0  0  0  0  0  0  0  0  0  0  0  0
    1.0502    2.5466   -0.0088 H   0  0  0  0  0  0  0  0  0  0  0  0
   -1.2653    3.0378    1.1075 H   0  0  0  0  0  0  0  0  0  0  0  0
   -1.2407   -1.7741   -1.2399 H   0  0  0  0  0  0  0  0  0  0  0  0
   -3.6115    1.6592    1.3248 H   0  0  0  0  0  0  0  0  0  0  0  0
   -4.8029   -0.4206    0.7568 H   0  0  0  0  0  0  0  0  0  0  0  0
   -3.5676   -2.1592   -0.5502 H   0  0  0  0  0  0  0  0  0  0  0  0
    4.5538    0.4543    0.6758 H   0  0  0  0  0  0  0  0  0  0  0  0
    3.2149    1.7019    0.5321 H   0  0  0  0  0  0  0  0  0  0  0  0
  1  2  2  0
  1  3  1  0
  3  4  1  0
  3  5  1  0
  4  6  1  0
  6  7  2  0
  6 10  1  0
  7  8  1  0
  8  9  1  0
  9 10  2  0
  9 12  1  0
 10 11  1  0
 11 14  2  0
 12 13  2  0
 13 14  1  0
  1 15  1  0
  3 16  1  6
  4 17  1  0
  4 18  1  0
  5 19  1  0
  5 20  1  0
  7 21  1  0
  8 22  1  0
 11 23  1  0
 12 24  1  0
 13 25  1  0
 14 26  1  0
 15 27  1  0
 15 28  1  0
M  END

