46506375
     RDKit          3D

 31 31  0  0  0  0  0  0  0  0999 V2000
   -1.1837    1.1549    0.7285 O   0  0  0  0  0  0  0  0  0  0  0  0
   -1.4698   -2.2238   -0.2303 O   0  0  0  0  0  0  0  0  0  0  0  0
   -2.7239    2.5940   -0.1150 O   0  0  0  0  0  0  0  0  0  0  0  0
   -0.8613   -2.6644   -2.3616 O   0  0  0  0  0  0  0  0  0  0  0  0
   -2.4377    2.7075    2.1747 N   0  0  0  0  0  0  0  0  0  0  0  0
   -2.9821   -3.3532   -1.8166 N   0  0  0  0  0  0  0  0  0  0  0  0
    0.0803   -0.3957   -0.6473 C   0  0  0  0  0  0  0  0  0  0  0  0
    1.3643    0.1325   -0.1291 C   0  0  0  0  0  0  0  0  0  0  0  0
   -0.9574    0.6902   -0.5648 C   0  0  0  0  0  0  0  0  0  0  0  0
   -0.2716   -1.6124    0.1494 C   0  0  0  0  0  0  0  0  0  0  0  0
    2.4494    0.2346   -0.9740 C   0  0  0  0  0  0  0  0  0  0  0  0
    1.5255    0.5325    1.1922 C   0  0  0  0  0  0  0  0  0  0  0  0
    3.6716    0.7154   -0.5506 C   0  0  0  0  0  0  0  0  0  0  0  0
    2.7397    1.0139    1.6265 C   0  0  0  0  0  0  0  0  0  0  0  0
    3.8245    1.1124    0.7682 C   0  0  0  0  0  0  0  0  0  0  0  0
   -2.1209    2.1569    0.9227 C   0  0  0  0  0  0  0  0  0  0  0  0
   -1.7473   -2.7399   -1.4772 C   0  0  0  0  0  0  0  0  0  0  0  0
   -1.6872    2.8949    2.8641 H   0  0  0  0  0  0  0  0  0  0  0  0
   -3.4133    2.9371    2.4379 H   0  0  0  0  0  0  0  0  0  0  0  0
   -3.8877   -2.8527   -1.8949 H   0  0  0  0  0  0  0  0  0  0  0  0
   -2.9871   -4.3802   -2.0020 H   0  0  0  0  0  0  0  0  0  0  0  0
    0.2431   -0.7162   -1.6920 H   0  0  0  0  0  0  0  0  0  0  0  0
   -0.6925    1.5372   -1.2285 H   0  0  0  0  0  0  0  0  0  0  0  0
   -1.9181    0.2420   -0.9389 H   0  0  0  0  0  0  0  0  0  0  0  0
   -0.3416   -1.4040    1.2439 H   0  0  0  0  0  0  0  0  0  0  0  0
    0.5783   -2.3285    0.0449 H   0  0  0  0  0  0  0  0  0  0  0  0
    2.3866   -0.0652   -2.0295 H   0  0  0  0  0  0  0  0  0  0  0  0
    0.7050    0.4699    1.8935 H   0  0  0  0  0  0  0  0  0  0  0  0
    4.5419    0.8088   -1.1848 H   0  0  0  0  0  0  0  0  0  0  0  0
    2.8166    1.3165    2.6770 H   0  0  0  0  0  0  0  0  0  0  0  0
    4.7563    1.4850    1.1137 H   0  0  0  0  0  0  0  0  0  0  0  0
  1  9  1  0
  1 16  1  0
  2 10  1  0
  2 17  1  0
  3 16  2  0
  4 17  2  0
  5 16  1  0
  6 17  1  0
  7  8  1  0
  7  9  1  0
  7 10  1  0
  8 11  2  0
  8 12  1  0
 11 13  1  0
 12 14  2  0
 13 15  2  0
 14 15  1  0
  5 18  1  0
  5 19  1  0
  6 20  1  0
  6 21  1  0
  7 22  1  0
  9 23  1  0
  9 24  1  0
 10 25  1  0
 10 26  1  0
 11 27  1  0
 12 28  1  0
 13 29  1  0
 14 30  1  0
 15 31  1  0
M  END

