46507534
     RDKit          3D

 13 13  0  0  0  0  0  0  0  0999 V2000
    2.7168   -0.5230    0.3325 O   0  0  0  0  0  0  0  0  0  0  0  0
    2.1765    1.6592    0.0570 O   0  0  0  0  0  0  0  0  0  0  0  0
   -0.6409    1.1264   -0.1135 N   0  0  0  0  0  0  0  0  0  0  0  0
    0.3423    0.2273    0.0613 C   0  0  0  0  0  0  0  0  0  0  0  0
   -0.3051   -1.0027    0.1398 C   0  0  0  0  0  0  0  0  0  0  0  0
   -1.8403    0.5202   -0.1458 C   0  0  0  0  0  0  0  0  0  0  0  0
   -1.6682   -0.8327    0.0118 C   0  0  0  0  0  0  0  0  0  0  0  0
    1.7758    0.4754    0.1505 C   0  0  0  0  0  0  0  0  0  0  0  0
    2.8230   -1.2864   -0.3300 H   0  0  0  0  0  0  0  0  0  0  0  0
   -0.4402    2.1661   -0.2078 H   0  0  0  0  0  0  0  0  0  0  0  0
    0.2383   -1.9278    0.2820 H   0  0  0  0  0  0  0  0  0  0  0  0
   -2.7775    1.0304   -0.2756 H   0  0  0  0  0  0  0  0  0  0  0  0
   -2.4005   -1.6324    0.0378 H   0  0  0  0  0  0  0  0  0  0  0  0
  1  8  1  0
  2  8  2  0
  3  4  1  0
  3  6  1  0
  4  5  2  0
  4  8  1  0
  5  7  1  0
  6  7  2  0
  1  9  1  0
  3 10  1  0
  5 11  1  0
  6 12  1  0
  7 13  1  0
M  END

