46505038
     RDKit          3D

 17 17  0  0  0  0  0  0  0  0999 V2000
   -2.4799   -0.2665    0.9217 O   0  0  0  0  0  0  0  0  0  0  0  0
   -1.4545   -0.1940    0.2458 C   0  0  0  0  0  0  0  0  0  0  0  0
   -0.9981    1.0819   -0.3655 C   0  0  0  0  0  0  0  0  0  0  0  0
    0.4459    1.3428   -0.1932 C   0  0  0  0  0  0  0  0  0  0  0  0
    1.2836    0.2459    0.3047 C   0  0  0  0  0  0  0  0  0  0  0  0
    0.8444   -1.1404    0.1049 C   0  0  0  0  0  0  0  0  0  0  0  0
   -0.6168   -1.3859    0.0061 C   0  0  0  0  0  0  0  0  0  0  0  0
   -1.6423    1.8922    0.0636 H   0  0  0  0  0  0  0  0  0  0  0  0
   -1.2871    1.0552   -1.4571 H   0  0  0  0  0  0  0  0  0  0  0  0
    0.8404    1.7462   -1.1728 H   0  0  0  0  0  0  0  0  0  0  0  0
    0.5524    2.2307    0.5002 H   0  0  0  0  0  0  0  0  0  0  0  0
    2.3057    0.3510   -0.1721 H   0  0  0  0  0  0  0  0  0  0  0  0
    1.5025    0.3965    1.4042 H   0  0  0  0  0  0  0  0  0  0  0  0
    1.2354   -1.7941    0.9421 H   0  0  0  0  0  0  0  0  0  0  0  0
    1.3371   -1.5843   -0.8115 H   0  0  0  0  0  0  0  0  0  0  0  0
   -0.9681   -2.2074    0.6971 H   0  0  0  0  0  0  0  0  0  0  0  0
   -0.9004   -1.7696   -1.0183 H   0  0  0  0  0  0  0  0  0  0  0  0
  1  2  2  0
  2  3  1  0
  3  4  1  0
  4  5  1  0
  5  6  1  0
  6  7  1  0
  2  7  1  0
  3  8  1  0
  3  9  1  0
  4 10  1  0
  4 11  1  0
  5 12  1  0
  5 13  1  0
  6 14  1  0
  6 15  1  0
  7 16  1  0
  7 17  1  0
M  END

