46505628
     RDKit          3D

 33 34  0  0  1  0  0  0  0  0999 V2000
    5.1732   -0.6357   -0.4586 N   0  0  0  0  0  0  0  0  0  0  0  0
    3.8157   -0.1587   -0.6596 C   0  0  2  0  0  0  0  0  0  0  0  0
    3.7244    1.1848   -0.0389 C   0  0  0  0  0  0  0  0  0  0  0  0
    2.5291    1.9058   -0.1049 O   0  0  0  0  0  0  0  0  0  0  0  0
    2.9055   -1.1761   -0.0375 C   0  0  0  0  0  0  0  0  0  0  0  0
    1.4696   -0.8692   -0.1361 C   0  0  0  0  0  0  0  0  0  0  0  0
    0.6686   -1.2563   -1.1922 C   0  0  0  0  0  0  0  0  0  0  0  0
   -0.6778   -0.9416   -1.2290 C   0  0  0  0  0  0  0  0  0  0  0  0
   -1.2594   -0.2289   -0.2061 C   0  0  0  0  0  0  0  0  0  0  0  0
   -0.4790    0.1689    0.8601 C   0  0  0  0  0  0  0  0  0  0  0  0
    0.8617   -0.1566    0.8751 C   0  0  0  0  0  0  0  0  0  0  0  0
   -4.4735    1.6148    0.3860 C   0  0  0  0  0  0  0  0  0  0  0  0
   -5.4017    0.7970   -0.1958 C   0  0  0  0  0  0  0  0  0  0  0  0
   -4.9795   -0.3648   -0.7864 C   0  0  0  0  0  0  0  0  0  0  0  0
   -3.6382   -0.6757   -0.7780 C   0  0  0  0  0  0  0  0  0  0  0  0
   -2.6758    0.1272   -0.1999 C   0  0  0  0  0  0  0  0  0  0  0  0
   -3.1112    1.2986    0.3942 C   0  0  0  0  0  0  0  0  0  0  0  0
    4.6987    1.6995    0.5495 O   0  0  0  0  0  0  0  0  0  0  0  0
    5.3934   -1.4718   -1.0432 H   0  0  0  0  0  0  0  0  0  0  0  0
    5.2392   -0.9055    0.5691 H   0  0  0  0  0  0  0  0  0  0  0  0
    3.6746   -0.0798   -1.7614 H   0  0  0  0  0  0  0  0  0  0  0  0
    2.5830    2.8075   -0.5983 H   0  0  0  0  0  0  0  0  0  0  0  0
    3.0891   -2.1370   -0.5504 H   0  0  0  0  0  0  0  0  0  0  0  0
    3.2417   -1.3185    1.0157 H   0  0  0  0  0  0  0  0  0  0  0  0
    1.1143   -1.8133   -1.9957 H   0  0  0  0  0  0  0  0  0  0  0  0
   -1.3099   -1.2430   -2.0547 H   0  0  0  0  0  0  0  0  0  0  0  0
   -0.9322    0.7362    1.6777 H   0  0  0  0  0  0  0  0  0  0  0  0
    1.4659    0.1561    1.7148 H   0  0  0  0  0  0  0  0  0  0  0  0
   -4.8070    2.5413    0.8573 H   0  0  0  0  0  0  0  0  0  0  0  0
   -6.4570    1.0516   -0.1968 H   0  0  0  0  0  0  0  0  0  0  0  0
   -5.6807   -1.0456   -1.2611 H   0  0  0  0  0  0  0  0  0  0  0  0
   -3.3376   -1.5993   -1.2520 H   0  0  0  0  0  0  0  0  0  0  0  0
   -2.4276    1.9881    0.8716 H   0  0  0  0  0  0  0  0  0  0  0  0
  2  1  1  0
  2  3  1  0
  2  5  1  0
  3  4  1  0
  3 18  2  0
  5  6  1  0
  6  7  2  0
  6 11  1  0
  7  8  1  0
  8  9  2  0
  9 10  1  0
  9 16  1  0
 10 11  2  0
 12 13  2  0
 12 17  1  0
 13 14  1  0
 14 15  2  0
 15 16  1  0
 16 17  2  0
  1 19  1  0
  1 20  1  0
  2 21  1  6
  4 22  1  0
  5 23  1  0
  5 24  1  0
  7 25  1  0
  8 26  1  0
 10 27  1  0
 11 28  1  0
 12 29  1  0
 13 30  1  0
 14 31  1  0
 15 32  1  0
 17 33  1  0
M  END

