46506673
     RDKit          3D

 56 57  0  0  1  0  0  0  0  0999 V2000
   -3.3711    0.9984    0.4017 C   0  0  0  0  0  0  0  0  0  0  0  0
   -3.0557    1.3946   -0.9824 C   0  0  0  0  0  0  0  0  0  0  0  0
   -3.3078    2.7370   -1.3526 N   0  0  0  0  0  0  0  0  0  0  0  0
   -2.5792    0.6396   -1.8652 O   0  0  0  0  0  0  0  0  0  0  0  0
   -3.0555    3.1937   -2.5915 O   0  0  0  0  0  0  0  0  0  0  0  0
   -3.0604   -0.5143    0.6449 C   0  0  2  0  0  0  0  0  0  0  0  0
   -1.6389   -0.7104    0.3880 C   0  0  0  0  0  0  0  0  0  0  0  0
   -4.0708   -1.2395   -0.1065 C   0  0  0  0  0  0  0  0  0  0  0  0
   -4.1917   -2.7045   -0.1018 C   0  0  0  0  0  0  0  0  0  0  0  0
   -5.4278   -2.9935   -1.0251 C   0  0  0  0  0  0  0  0  0  0  0  0
   -3.1069   -3.5281   -0.7181 C   0  0  0  0  0  0  0  0  0  0  0  0
   -0.6294    0.0092    1.1021 N   0  0  0  0  0  0  0  0  0  0  0  0
   -1.2185   -1.5112   -0.4665 O   0  0  0  0  0  0  0  0  0  0  0  0
    0.7675   -0.1355    0.9077 C   0  0  2  0  0  0  0  0  0  0  0  0
    1.5978    0.3951    2.0198 C   0  0  0  0  0  0  0  0  0  0  0  0
    1.0812    0.6837   -0.3831 C   0  0  0  0  0  0  0  0  0  0  0  0
    2.5187    0.5895   -0.6513 C   0  0  0  0  0  0  0  0  0  0  0  0
    3.5484    1.3563   -0.1793 C   0  0  0  0  0  0  0  0  0  0  0  0
    4.7321    0.8025   -0.6685 C   0  0  0  0  0  0  0  0  0  0  0  0
    4.4220   -0.2740   -1.4214 N   0  0  0  0  0  0  0  0  0  0  0  0
    3.0909   -0.4114   -1.4175 C   0  0  0  0  0  0  0  0  0  0  0  0
    3.6368    2.4957    0.6128 C   0  0  0  0  0  0  0  0  0  0  0  0
    4.8812    3.0283    0.8868 C   0  0  0  0  0  0  0  0  0  0  0  0
    6.0426    2.4663    0.3990 C   0  0  0  0  0  0  0  0  0  0  0  0
    5.9593    1.3530   -0.3790 C   0  0  0  0  0  0  0  0  0  0  0  0
    2.7011   -0.2113    2.5147 N   0  0  0  0  0  0  0  0  0  0  0  0
    1.1496    1.5183    2.4680 O   0  0  0  0  0  0  0  0  0  0  0  0
    3.8375   -0.8359    3.0244 C   0  0  0  0  0  0  0  0  0  0  0  0
   -4.4158    1.1744    0.6376 H   0  0  0  0  0  0  0  0  0  0  0  0
   -2.7337    1.6046    1.0810 H   0  0  0  0  0  0  0  0  0  0  0  0
   -3.6991    3.4087   -0.6580 H   0  0  0  0  0  0  0  0  0  0  0  0
   -3.8012    3.7477   -2.9386 H   0  0  0  0  0  0  0  0  0  0  0  0
   -3.2430   -0.6580    1.7489 H   0  0  0  0  0  0  0  0  0  0  0  0
   -4.1382   -0.9150   -1.1952 H   0  0  0  0  0  0  0  0  0  0  0  0
   -5.0903   -0.8562    0.2870 H   0  0  0  0  0  0  0  0  0  0  0  0
   -4.5125   -3.1339    0.8844 H   0  0  0  0  0  0  0  0  0  0  0  0
   -6.3498   -2.7197   -0.5094 H   0  0  0  0  0  0  0  0  0  0  0  0
   -5.2892   -2.2972   -1.8787 H   0  0  0  0  0  0  0  0  0  0  0  0
   -5.3760   -4.0065   -1.4235 H   0  0  0  0  0  0  0  0  0  0  0  0
   -2.2916   -3.8226   -0.0422 H   0  0  0  0  0  0  0  0  0  0  0  0
   -3.6197   -4.5471   -0.9342 H   0  0  0  0  0  0  0  0  0  0  0  0
   -2.8321   -3.1597   -1.7065 H   0  0  0  0  0  0  0  0  0  0  0  0
   -0.9590    0.6920    1.8344 H   0  0  0  0  0  0  0  0  0  0  0  0
    1.0240   -1.1518    0.6207 H   0  0  0  0  0  0  0  0  0  0  0  0
    0.7542    1.7291   -0.2006 H   0  0  0  0  0  0  0  0  0  0  0  0
    0.5027    0.2344   -1.1996 H   0  0  0  0  0  0  0  0  0  0  0  0
    5.1190   -0.8900   -1.9201 H   0  0  0  0  0  0  0  0  0  0  0  0
    2.5965   -1.2102   -1.9524 H   0  0  0  0  0  0  0  0  0  0  0  0
    2.7306    2.9397    0.9691 H   0  0  0  0  0  0  0  0  0  0  0  0
    4.9273    3.9229    1.5071 H   0  0  0  0  0  0  0  0  0  0  0  0
    7.0234    2.8807    0.6127 H   0  0  0  0  0  0  0  0  0  0  0  0
    6.8651    0.8986   -0.7757 H   0  0  0  0  0  0  0  0  0  0  0  0
    2.9075    0.7941    3.4105 H   0  0  0  0  0  0  0  0  0  0  0  0
    4.8063   -0.2596    2.9558 H   0  0  0  0  0  0  0  0  0  0  0  0
    4.0545   -1.7584    2.3959 H   0  0  0  0  0  0  0  0  0  0  0  0
    3.7870   -1.2325    4.0577 H   0  0  0  0  0  0  0  0  0  0  0  0
  1  2  1  0
  2  3  1  0
  2  4  2  0
  3  5  1  0
  1  6  1  0
  6  7  1  0
  6  8  1  0
  8  9  1  0
  9 10  1  0
  9 11  1  0
  7 12  1  0
  7 13  2  0
 12 14  1  0
 14 15  1  0
 14 16  1  0
 16 17  1  0
 17 18  1  0
 18 19  2  0
 19 20  1  0
 20 21  1  0
 17 21  2  0
 18 22  1  0
 22 23  2  0
 23 24  1  0
 24 25  2  0
 19 25  1  0
 15 26  1  0
 15 27  2  0
 26 28  1  0
  1 29  1  0
  1 30  1  0
  3 31  1  0
  5 32  1  0
  6 33  1  1
  8 34  1  0
  8 35  1  0
  9 36  1  0
 10 37  1  0
 10 38  1  0
 10 39  1  0
 11 40  1  0
 11 41  1  0
 11 42  1  0
 12 43  1  0
 14 44  1  6
 16 45  1  0
 16 46  1  0
 20 47  1  0
 21 48  1  0
 22 49  1  0
 23 50  1  0
 24 51  1  0
 25 52  1  0
 26 53  1  0
 28 54  1  0
 28 55  1  0
 28 56  1  0
M  END

