46509145
     RDKit          3D

 25 24  0  0  1  0  0  0  0  0999 V2000
   -1.7943    1.2069    0.2562 C   0  0  0  0  0  0  0  0  0  0  0  0
    3.0065    0.8281   -0.4406 C   0  0  0  0  0  0  0  0  0  0  0  0
   -1.9428    1.6182   -0.9376 O   0  0  0  0  0  0  0  0  0  0  0  0
    3.1096    1.2672   -1.7331 O   0  0  0  0  0  0  0  0  0  0  0  0
   -1.2519    2.1010    1.1629 O   0  0  0  0  0  0  0  0  0  0  0  0
    3.5179    1.4793    0.4927 O   0  0  0  0  0  0  0  0  0  0  0  0
    2.2869   -0.4246   -0.1384 C   0  0  0  0  0  0  0  0  0  0  0  0
   -2.1868   -0.1593    0.6384 C   0  0  2  0  0  0  0  0  0  0  0  0
   -1.1945   -0.9404    1.4215 C   0  0  0  0  0  0  0  0  0  0  0  0
    0.9293   -0.0054    0.4639 C   0  0  0  0  0  0  0  0  0  0  0  0
    0.1184   -1.2108    0.8072 C   0  0  0  0  0  0  0  0  0  0  0  0
   -2.6187   -0.9293   -0.5391 N   0  0  0  0  0  0  0  0  0  0  0  0
    3.5504    2.1499   -1.9412 H   0  0  0  0  0  0  0  0  0  0  0  0
   -1.5181    3.0579    1.1071 H   0  0  0  0  0  0  0  0  0  0  0  0
    2.0967   -0.9905   -1.0799 H   0  0  0  0  0  0  0  0  0  0  0  0
    2.8455   -1.0513    0.6088 H   0  0  0  0  0  0  0  0  0  0  0  0
   -3.0945   -0.0559    1.3268 H   0  0  0  0  0  0  0  0  0  0  0  0
   -1.6557   -1.9361    1.6725 H   0  0  0  0  0  0  0  0  0  0  0  0
   -1.0293   -0.4707    2.4473 H   0  0  0  0  0  0  0  0  0  0  0  0
    1.1359    0.6182    1.3556 H   0  0  0  0  0  0  0  0  0  0  0  0
    0.4773    0.6167   -0.3481 H   0  0  0  0  0  0  0  0  0  0  0  0
   -0.0011   -1.8212   -0.1430 H   0  0  0  0  0  0  0  0  0  0  0  0
    0.7545   -1.8742    1.4456 H   0  0  0  0  0  0  0  0  0  0  0  0
   -1.9806   -1.7687   -0.6420 H   0  0  0  0  0  0  0  0  0  0  0  0
   -3.5605   -1.3050   -0.3726 H   0  0  0  0  0  0  0  0  0  0  0  0
  1  3  2  0
  1  5  1  0
  1  8  1  0
  2  7  1  0
  2  4  1  0
  2  6  2  0
  7 10  1  0
  8  9  1  0
  8 12  1  0
  9 11  1  0
 10 11  1  0
  4 13  1  0
  5 14  1  0
  7 15  1  0
  7 16  1  0
  8 17  1  1
  9 18  1  0
  9 19  1  0
 10 20  1  0
 10 21  1  0
 11 22  1  0
 11 23  1  0
 12 24  1  0
 12 25  1  0
M  END

