46507691
     RDKit          3D

  8  8  0  0  0  0  0  0  0  0999 V2000
   -0.7586    0.6482   -0.1244 C   0  0  0  0  0  0  0  0  0  0  0  0
    1.3121   -0.0081    0.3065 C   0  0  0  0  0  0  0  0  0  0  0  0
    0.5265    1.0679    0.0667 N   0  0  0  0  0  0  0  0  0  0  0  0
   -0.7430   -0.6922    0.0022 N   0  0  0  0  0  0  0  0  0  0  0  0
    0.4878   -1.0597    0.2562 N   0  0  0  0  0  0  0  0  0  0  0  0
   -1.5827    1.3154   -0.3333 H   0  0  0  0  0  0  0  0  0  0  0  0
    2.3780    0.0060    0.4958 H   0  0  0  0  0  0  0  0  0  0  0  0
   -1.6203   -1.2775   -0.1007 H   0  0  0  0  0  0  0  0  0  0  0  0
  1  3  2  0
  2  3  1  0
  1  4  1  0
  2  5  2  0
  4  5  1  0
  1  6  1  0
  2  7  1  0
  4  8  1  0
M  END

