46505740
     RDKit          3D

 44 45  0  0  1  0  0  0  0  0999 V2000
    0.7014    0.2640   -0.8610 O   0  0  0  0  0  0  0  0  0  0  0  0
    0.9008   -1.3343   -2.4223 O   0  0  0  0  0  0  0  0  0  0  0  0
    3.4540   -0.9102   -2.9520 O   0  0  0  0  0  0  0  0  0  0  0  0
   -2.9459    0.9332   -0.5813 C   0  0  0  0  0  0  0  0  0  0  0  0
   -3.0636    0.5453    0.8724 C   0  0  0  0  0  0  0  0  0  0  0  0
   -2.2309   -0.6711    1.2023 C   0  0  0  0  0  0  0  0  0  0  0  0
   -1.5219    1.2269   -0.8957 C   0  0  0  0  0  0  0  0  0  0  0  0
   -0.6418    0.0380   -0.5849 C   0  0  0  0  0  0  0  0  0  0  0  0
   -0.7966   -0.4299    0.8414 C   0  0  0  0  0  0  0  0  0  0  0  0
   -3.7309    2.2394   -0.7463 C   0  0  0  0  0  0  0  0  0  0  0  0
   -3.5808   -0.0733   -1.5017 C   0  0  0  0  0  0  0  0  0  0  0  0
   -2.3212   -0.8672    2.7100 C   0  0  0  0  0  0  0  0  0  0  0  0
    1.4702   -0.4202   -1.7769 C   0  0  0  0  0  0  0  0  0  0  0  0
    2.8992   -0.0821   -1.9796 C   0  0  0  0  0  0  0  0  0  0  0  0
    3.6506   -0.2981   -0.7170 C   0  0  0  0  0  0  0  0  0  0  0  0
    3.9728   -1.5609   -0.2692 C   0  0  0  0  0  0  0  0  0  0  0  0
    4.0315    0.7995    0.0194 C   0  0  0  0  0  0  0  0  0  0  0  0
    4.6713   -1.7482    0.9054 C   0  0  0  0  0  0  0  0  0  0  0  0
    4.7202    0.6129    1.1775 C   0  0  0  0  0  0  0  0  0  0  0  0
    5.0388   -0.6309    1.6207 C   0  0  0  0  0  0  0  0  0  0  0  0
    3.1701   -1.8505   -2.8129 H   0  0  0  0  0  0  0  0  0  0  0  0
   -4.1018    0.3957    1.1943 H   0  0  0  0  0  0  0  0  0  0  0  0
   -2.6445    1.3879    1.4625 H   0  0  0  0  0  0  0  0  0  0  0  0
   -2.6198   -1.5949    0.7285 H   0  0  0  0  0  0  0  0  0  0  0  0
   -1.4241    1.4171   -1.9867 H   0  0  0  0  0  0  0  0  0  0  0  0
   -1.2167    2.1405   -0.3664 H   0  0  0  0  0  0  0  0  0  0  0  0
   -0.9778   -0.7940   -1.2385 H   0  0  0  0  0  0  0  0  0  0  0  0
   -0.3595    0.2748    1.5525 H   0  0  0  0  0  0  0  0  0  0  0  0
   -0.2358   -1.3958    0.9188 H   0  0  0  0  0  0  0  0  0  0  0  0
   -3.6358    2.6475   -1.7599 H   0  0  0  0  0  0  0  0  0  0  0  0
   -4.7811    2.0033   -0.4676 H   0  0  0  0  0  0  0  0  0  0  0  0
   -3.3702    2.9615    0.0422 H   0  0  0  0  0  0  0  0  0  0  0  0
   -3.2838   -1.1132   -1.2962 H   0  0  0  0  0  0  0  0  0  0  0  0
   -4.6917   -0.0299   -1.3399 H   0  0  0  0  0  0  0  0  0  0  0  0
   -3.3045    0.1644   -2.5346 H   0  0  0  0  0  0  0  0  0  0  0  0
   -1.8500   -1.7974    3.0417 H   0  0  0  0  0  0  0  0  0  0  0  0
   -1.8813    0.0454    3.1683 H   0  0  0  0  0  0  0  0  0  0  0  0
   -3.4175   -0.8380    2.9653 H   0  0  0  0  0  0  0  0  0  0  0  0
    2.9728    0.9424   -2.3404 H   0  0  0  0  0  0  0  0  0  0  0  0
    3.6804   -2.4472   -0.8380 H   0  0  0  0  0  0  0  0  0  0  0  0
    3.7689    1.7842   -0.3492 H   0  0  0  0  0  0  0  0  0  0  0  0
    4.9327   -2.7209    1.2730 H   0  0  0  0  0  0  0  0  0  0  0  0
    5.0038    1.5200    1.7330 H   0  0  0  0  0  0  0  0  0  0  0  0
    5.5897   -0.7356    2.5506 H   0  0  0  0  0  0  0  0  0  0  0  0
  1  8  1  0
  1 13  1  0
  2 13  2  0
  3 14  1  0
  4  5  1  0
  4  7  1  0
  4 10  1  0
  4 11  1  0
  5  6  1  0
  6  9  1  0
  6 12  1  0
  7  8  1  0
  8  9  1  0
 13 14  1  0
 14 15  1  0
 15 16  2  0
 15 17  1  0
 16 18  1  0
 17 19  2  0
 18 20  2  0
 19 20  1  0
  3 21  1  0
  5 22  1  0
  5 23  1  0
  6 24  1  0
  7 25  1  0
  7 26  1  0
  8 27  1  0
  9 28  1  0
  9 29  1  0
 10 30  1  0
 10 31  1  0
 10 32  1  0
 11 33  1  0
 11 34  1  0
 11 35  1  0
 12 36  1  0
 12 37  1  0
 12 38  1  0
 14 39  1  0
 16 40  1  0
 17 41  1  0
 18 42  1  0
 19 43  1  0
 20 44  1  0
M  END

