46508427
     RDKit          3D

 13 12  0  0  1  0  0  0  0  0999 V2000
    0.1019    0.5816   -0.1598 C   0  0  2  0  0  0  0  0  0  0  0  0
   -0.0999    1.1094    1.1053 O   0  0  0  0  0  0  0  0  0  0  0  0
   -1.0181   -0.3701   -0.4845 C   0  0  0  0  0  0  0  0  0  0  0  0
   -0.9969   -1.3835    0.4835 O   0  0  0  0  0  0  0  0  0  0  0  0
    1.3987   -0.2268   -0.1442 C   0  0  0  0  0  0  0  0  0  0  0  0
    0.1927    1.3773   -0.9299 H   0  0  0  0  0  0  0  0  0  0  0  0
   -0.7512    1.8663    1.0154 H   0  0  0  0  0  0  0  0  0  0  0  0
   -1.9963    0.1455   -0.4202 H   0  0  0  0  0  0  0  0  0  0  0  0
   -0.8705   -0.8493   -1.4588 H   0  0  0  0  0  0  0  0  0  0  0  0
   -1.0907   -0.9799    1.3795 H   0  0  0  0  0  0  0  0  0  0  0  0
    1.1858   -1.2917    0.1172 H   0  0  0  0  0  0  0  0  0  0  0  0
    1.8838   -0.1523   -1.1477 H   0  0  0  0  0  0  0  0  0  0  0  0
    2.0607    0.1735    0.6440 H   0  0  0  0  0  0  0  0  0  0  0  0
  1  5  1  0
  1  2  1  0
  1  3  1  0
  3  4  1  0
  1  6  1  6
  2  7  1  0
  3  8  1  0
  3  9  1  0
  4 10  1  0
  5 11  1  0
  5 12  1  0
  5 13  1  0
M  END

