46507997
     RDKit          3D

 16 15  0  0  1  0  0  0  0  0999 V2000
   -0.7136   -1.9398   -0.0360 O   0  0  0  0  0  0  0  0  0  0  0  0
    1.9067   -1.5064    0.8351 O   0  0  0  0  0  0  0  0  0  0  0  0
   -2.3186   -0.5319    0.7109 O   0  0  0  0  0  0  0  0  0  0  0  0
    2.1545   -0.7620   -1.3018 O   0  0  0  0  0  0  0  0  0  0  0  0
   -1.2800    1.6965   -0.0917 N   0  0  0  0  0  0  0  0  0  0  0  0
   -0.5381    0.5519   -0.3870 C   0  0  1  0  0  0  0  0  0  0  0  0
    0.8833    0.6419    0.1519 C   0  0  0  0  0  0  0  0  0  0  0  0
   -1.2269   -0.6581    0.1183 C   0  0  0  0  0  0  0  0  0  0  0  0
    1.6741   -0.5600   -0.1541 C   0  0  0  0  0  0  0  0  0  0  0  0
   -1.3399   -2.7487   -0.0757 H   0  0  0  0  0  0  0  0  0  0  0  0
    2.2965   -1.1649    1.7009 H   0  0  0  0  0  0  0  0  0  0  0  0
   -1.6192    1.8533    0.8412 H   0  0  0  0  0  0  0  0  0  0  0  0
   -1.6424    2.2652   -0.8539 H   0  0  0  0  0  0  0  0  0  0  0  0
   -0.4229    0.4686   -1.5030 H   0  0  0  0  0  0  0  0  0  0  0  0
    0.8578    0.8447    1.2398 H   0  0  0  0  0  0  0  0  0  0  0  0
    1.3287    1.5498   -0.3292 H   0  0  0  0  0  0  0  0  0  0  0  0
  1  8  1  0
  2  9  1  0
  3  8  2  0
  4  9  2  0
  6  5  1  0
  6  7  1  0
  6  8  1  0
  7  9  1  0
  1 10  1  0
  2 11  1  0
  5 12  1  0
  5 13  1  0
  6 14  1  6
  7 15  1  0
  7 16  1  0
M  END

