46508599
     RDKit          3D

 32 32  0  0  0  0  0  0  0  0999 V2000
    2.4631   -0.0406   -0.8254 O   0  0  0  0  0  0  0  0  0  0  0  0
    0.2435   -0.5789   -0.4835 N   0  0  0  0  0  0  0  0  0  0  0  0
   -0.9966   -0.3877    0.1789 C   0  0  0  0  0  0  0  0  0  0  0  0
    0.3039   -1.6182   -1.4919 C   0  0  0  0  0  0  0  0  0  0  0  0
   -1.8719    0.6314   -0.1364 C   0  0  0  0  0  0  0  0  0  0  0  0
   -1.3818   -1.2564    1.2040 C   0  0  0  0  0  0  0  0  0  0  0  0
    1.4011    0.1903   -0.2049 C   0  0  0  0  0  0  0  0  0  0  0  0
   -3.0871    0.7946    0.5316 C   0  0  0  0  0  0  0  0  0  0  0  0
    0.6970   -2.9464   -0.9557 C   0  0  0  0  0  0  0  0  0  0  0  0
   -1.5170    1.5894   -1.2165 C   0  0  0  0  0  0  0  0  0  0  0  0
   -2.5798   -1.1069    1.8728 C   0  0  0  0  0  0  0  0  0  0  0  0
   -3.4495   -0.0714    1.5389 C   0  0  0  0  0  0  0  0  0  0  0  0
    1.4102    1.2610    0.7918 C   0  0  0  0  0  0  0  0  0  0  0  0
    2.4852    1.9797    1.0524 C   0  0  0  0  0  0  0  0  0  0  0  0
    3.7739    1.7615    0.3550 C   0  0  0  0  0  0  0  0  0  0  0  0
   -0.6856   -1.6427   -1.9924 H   0  0  0  0  0  0  0  0  0  0  0  0
    1.0304   -1.3391   -2.3119 H   0  0  0  0  0  0  0  0  0  0  0  0
   -0.7217   -2.0683    1.4811 H   0  0  0  0  0  0  0  0  0  0  0  0
   -3.7232    1.5955    0.2473 H   0  0  0  0  0  0  0  0  0  0  0  0
    1.0279   -2.9332    0.1006 H   0  0  0  0  0  0  0  0  0  0  0  0
    1.5218   -3.3874   -1.5496 H   0  0  0  0  0  0  0  0  0  0  0  0
   -0.1684   -3.6565   -1.1023 H   0  0  0  0  0  0  0  0  0  0  0  0
   -2.4160    2.1438   -1.5710 H   0  0  0  0  0  0  0  0  0  0  0  0
   -1.1190    1.0570   -2.1067 H   0  0  0  0  0  0  0  0  0  0  0  0
   -0.8067    2.3775   -0.8572 H   0  0  0  0  0  0  0  0  0  0  0  0
   -2.8067   -1.8144    2.6504 H   0  0  0  0  0  0  0  0  0  0  0  0
   -4.3845    0.0205    2.0822 H   0  0  0  0  0  0  0  0  0  0  0  0
    0.5098    1.5069    1.3657 H   0  0  0  0  0  0  0  0  0  0  0  0
    2.4503    2.7640    1.7989 H   0  0  0  0  0  0  0  0  0  0  0  0
    3.7088    1.9150   -0.7446 H   0  0  0  0  0  0  0  0  0  0  0  0
    4.5186    2.5115    0.6998 H   0  0  0  0  0  0  0  0  0  0  0  0
    4.1700    0.7485    0.5220 H   0  0  0  0  0  0  0  0  0  0  0  0
  1  7  2  0
  2  3  1  0
  2  4  1  0
  2  7  1  0
  3  5  2  0
  3  6  1  0
  4  9  1  0
  5  8  1  0
  5 10  1  0
  6 11  2  0
  7 13  1  0
  8 12  2  0
 11 12  1  0
 13 14  2  3
 14 15  1  0
  4 16  1  0
  4 17  1  0
  6 18  1  0
  8 19  1  0
  9 20  1  0
  9 21  1  0
  9 22  1  0
 10 23  1  0
 10 24  1  0
 10 25  1  0
 11 26  1  0
 12 27  1  0
 13 28  1  0
 14 29  1  0
 15 30  1  0
 15 31  1  0
 15 32  1  0
M  END

