46507962
     RDKit          3D

 27 28  0  0  0  0  0  0  0  0999 V2000
    3.3340   -0.7303    0.3105 N   0  0  0  0  0  0  0  0  0  0  0  0
   -0.0723    0.4909    0.2941 N   0  0  0  0  0  0  0  0  0  0  0  0
   -0.7382   -0.4380   -0.2635 N   0  0  0  0  0  0  0  0  0  0  0  0
    1.2320   -1.9482    0.4642 N   0  0  0  0  0  0  0  0  0  0  0  0
    5.4604    0.4141    0.1622 N   0  0  0  0  0  0  0  0  0  0  0  0
    1.3512    0.4822    0.2592 C   0  0  0  0  0  0  0  0  0  0  0  0
    1.9869   -0.7410    0.3450 C   0  0  0  0  0  0  0  0  0  0  0  0
    2.0324    1.6772    0.1429 C   0  0  0  0  0  0  0  0  0  0  0  0
    3.4095    1.6424    0.1114 C   0  0  0  0  0  0  0  0  0  0  0  0
    4.0463    0.4208    0.1970 C   0  0  0  0  0  0  0  0  0  0  0  0
   -2.1577   -0.3392   -0.1734 C   0  0  0  0  0  0  0  0  0  0  0  0
   -2.8210    0.8452   -0.4838 C   0  0  0  0  0  0  0  0  0  0  0  0
   -2.8899   -1.4379    0.2291 C   0  0  0  0  0  0  0  0  0  0  0  0
   -4.1827    0.9629   -0.4044 C   0  0  0  0  0  0  0  0  0  0  0  0
   -4.2598   -1.3200    0.3091 C   0  0  0  0  0  0  0  0  0  0  0  0
   -4.8996   -0.1395   -0.0021 C   0  0  0  0  0  0  0  0  0  0  0  0
    0.9017   -2.2798    1.4003 H   0  0  0  0  0  0  0  0  0  0  0  0
    1.0008   -2.5177   -0.3973 H   0  0  0  0  0  0  0  0  0  0  0  0
    5.9653    0.3106   -0.7335 H   0  0  0  0  0  0  0  0  0  0  0  0
    5.9909    0.5144    1.0459 H   0  0  0  0  0  0  0  0  0  0  0  0
    1.5492    2.6400    0.0750 H   0  0  0  0  0  0  0  0  0  0  0  0
    3.9600    2.5878    0.0191 H   0  0  0  0  0  0  0  0  0  0  0  0
   -2.2228    1.6893   -0.7961 H   0  0  0  0  0  0  0  0  0  0  0  0
   -2.4362   -2.3870    0.4845 H   0  0  0  0  0  0  0  0  0  0  0  0
   -4.7322    1.8653   -0.6372 H   0  0  0  0  0  0  0  0  0  0  0  0
   -4.8232   -2.1727    0.6211 H   0  0  0  0  0  0  0  0  0  0  0  0
   -5.9848   -0.0915    0.0754 H   0  0  0  0  0  0  0  0  0  0  0  0
  1  7  2  0
  1 10  1  0
  2  3  2  0
  2  6  1  0
  3 11  1  0
  4  7  1  0
  5 10  1  0
  6  7  1  0
  6  8  2  0
  8  9  1  0
  9 10  2  0
 11 12  2  0
 11 13  1  0
 12 14  1  0
 13 15  2  0
 14 16  2  0
 15 16  1  0
  4 17  1  0
  4 18  1  0
  5 19  1  0
  5 20  1  0
  8 21  1  0
  9 22  1  0
 12 23  1  0
 13 24  1  0
 14 25  1  0
 15 26  1  0
 16 27  1  0
M  END

