46507739
     RDKit          3D

 13 12  0  0  0  0  0  0  0  0999 V2000
   -2.0869    0.2197   -0.4180 N   0  0  0  0  0  0  0  0  0  0  0  0
   -0.8354   -0.4745   -0.3529 C   0  0  0  0  0  0  0  0  0  0  0  0
    0.2491    0.3661    0.2886 C   0  0  0  0  0  0  0  0  0  0  0  0
    2.6072    0.3453    0.9338 O   0  0  0  0  0  0  0  0  0  0  0  0
    1.5320   -0.3222    0.3649 C   0  0  0  0  0  0  0  0  0  0  0  0
    1.7463   -1.4924   -0.0505 O   0  0  0  0  0  0  0  0  0  0  0  0
   -2.2057    0.8100    0.4428 H   0  0  0  0  0  0  0  0  0  0  0  0
   -2.8785   -0.4540   -0.5284 H   0  0  0  0  0  0  0  0  0  0  0  0
   -0.9585   -1.4327    0.2133 H   0  0  0  0  0  0  0  0  0  0  0  0
   -0.5204   -0.7722   -1.3739 H   0  0  0  0  0  0  0  0  0  0  0  0
    0.3854    1.2750   -0.3495 H   0  0  0  0  0  0  0  0  0  0  0  0
   -0.0328    0.7260    1.2865 H   0  0  0  0  0  0  0  0  0  0  0  0
    2.9982    1.2059    0.5401 H   0  0  0  0  0  0  0  0  0  0  0  0
  1  2  1  0
  2  3  1  0
  4  5  1  0
  3  5  1  0
  5  6  2  0
  1  7  1  0
  1  8  1  0
  2  9  1  0
  2 10  1  0
  3 11  1  0
  3 12  1  0
  4 13  1  0
M  END

