46507642
     RDKit          3D

 16 16  0  0  0  0  0  0  0  0999 V2000
   -0.3691   -1.2324    0.4647 N   0  0  0  0  0  0  0  0  0  0  0  0
    0.3430    1.1815   -0.7677 N   0  0  0  0  0  0  0  0  0  0  0  0
    0.9468   -1.0594   -0.0926 C   0  0  0  0  0  0  0  0  0  0  0  0
   -1.3544   -0.3434   -0.0923 C   0  0  0  0  0  0  0  0  0  0  0  0
    1.3341    0.3940   -0.0357 C   0  0  0  0  0  0  0  0  0  0  0  0
   -0.9085    1.1129    0.0031 C   0  0  0  0  0  0  0  0  0  0  0  0
   -0.2920   -0.9856    1.4903 H   0  0  0  0  0  0  0  0  0  0  0  0
    0.1385    0.6028   -1.6368 H   0  0  0  0  0  0  0  0  0  0  0  0
    1.0608   -1.4807   -1.1018 H   0  0  0  0  0  0  0  0  0  0  0  0
    1.6589   -1.6027    0.5816 H   0  0  0  0  0  0  0  0  0  0  0  0
   -1.5936   -0.5677   -1.1465 H   0  0  0  0  0  0  0  0  0  0  0  0
   -2.2601   -0.4201    0.5634 H   0  0  0  0  0  0  0  0  0  0  0  0
    2.2966    0.5573   -0.5726 H   0  0  0  0  0  0  0  0  0  0  0  0
    1.3840    0.6993    1.0326 H   0  0  0  0  0  0  0  0  0  0  0  0
   -1.6883    1.7487   -0.4340 H   0  0  0  0  0  0  0  0  0  0  0  0
   -0.6966    1.3955    1.0442 H   0  0  0  0  0  0  0  0  0  0  0  0
  1  3  1  0
  1  4  1  0
  2  5  1  0
  2  6  1  0
  3  5  1  0
  4  6  1  0
  1  7  1  0
  2  8  1  0
  3  9  1  0
  3 10  1  0
  4 11  1  0
  4 12  1  0
  5 13  1  0
  5 14  1  0
  6 15  1  0
  6 16  1  0
M  END

