46508324
     RDKit          3D

 42 45  0  0  0  0  0  0  0  0999 V2000
   -4.7607   -0.1551    0.5464 C   0  0  0  0  0  0  0  0  0  0  0  0
   -4.9047   -1.2039   -0.3359 C   0  0  0  0  0  0  0  0  0  0  0  0
   -3.8055   -1.7697   -0.9613 C   0  0  0  0  0  0  0  0  0  0  0  0
   -2.5311   -1.3024   -0.7218 C   0  0  0  0  0  0  0  0  0  0  0  0
   -2.3779   -0.2553    0.1580 C   0  0  0  0  0  0  0  0  0  0  0  0
   -3.4739    0.2980    0.7723 C   0  0  0  0  0  0  0  0  0  0  0  0
   -5.9067    0.4491    1.2108 C   0  0  0  0  0  0  0  0  0  0  0  0
   -5.6656    1.5305    2.1088 N   0  0  0  0  0  0  0  0  0  0  0  0
   -7.0981    0.0486    1.0181 N   0  0  0  0  0  4  0  0  0  0  0  0
   -1.3116   -1.6659   -1.1887 N   0  0  0  0  0  0  0  0  0  0  0  0
   -0.9947   -0.0146    0.1891 C   0  0  0  0  0  0  0  0  0  0  0  0
   -0.3532   -0.8798   -0.6353 C   0  0  0  0  0  0  0  0  0  0  0  0
    1.0788   -0.9620   -0.8877 C   0  0  0  0  0  0  0  0  0  0  0  0
    1.5784   -1.9255   -1.7787 C   0  0  0  0  0  0  0  0  0  0  0  0
    2.9077   -2.0520   -2.0561 C   0  0  0  0  0  0  0  0  0  0  0  0
    3.7901   -1.2003   -1.4367 C   0  0  0  0  0  0  0  0  0  0  0  0
    3.3811   -0.2293   -0.5508 C   0  0  0  0  0  0  0  0  0  0  0  0
    2.0069   -0.1459   -0.3046 C   0  0  0  0  0  0  0  0  0  0  0  0
    1.6156    0.8404    0.5922 O   0  0  0  0  0  1  0  0  0  0  0  0
    4.3222    0.6718    0.1037 C   0  0  0  0  0  0  0  0  0  0  0  0
    4.0760    2.0271    0.1961 C   0  0  0  0  0  0  0  0  0  0  0  0
    4.9871    2.8691    0.8246 C   0  0  0  0  0  0  0  0  0  0  0  0
    6.1565    2.3941    1.3735 C   0  0  0  0  0  0  0  0  0  0  0  0
    6.4040    1.0447    1.2827 C   0  0  0  0  0  0  0  0  0  0  0  0
    5.4984    0.2104    0.6584 C   0  0  0  0  0  0  0  0  0  0  0  0
   -5.8862   -1.6361   -0.5825 H   0  0  0  0  0  0  0  0  0  0  0  0
   -3.9607   -2.5817   -1.6388 H   0  0  0  0  0  0  0  0  0  0  0  0
   -3.3430    1.1196    1.4612 H   0  0  0  0  0  0  0  0  0  0  0  0
   -5.6711    1.3409    3.1249 H   0  0  0  0  0  0  0  0  0  0  0  0
   -5.4912    2.4827    1.6910 H   0  0  0  0  0  0  0  0  0  0  0  0
   -7.9056    0.5186    1.5242 H   0  0  0  0  0  0  0  0  0  0  0  0
   -7.3571   -0.7212    0.3898 H   0  0  0  0  0  0  0  0  0  0  0  0
   -1.1479   -2.4384   -1.8728 H   0  0  0  0  0  0  0  0  0  0  0  0
   -0.6068    0.7758    0.8187 H   0  0  0  0  0  0  0  0  0  0  0  0
    0.8277   -2.5806   -2.2459 H   0  0  0  0  0  0  0  0  0  0  0  0
    3.2345   -2.8261   -2.7624 H   0  0  0  0  0  0  0  0  0  0  0  0
    4.8443   -1.3001   -1.6563 H   0  0  0  0  0  0  0  0  0  0  0  0
    3.1554    2.4161   -0.2334 H   0  0  0  0  0  0  0  0  0  0  0  0
    4.7872    3.9261    0.8925 H   0  0  0  0  0  0  0  0  0  0  0  0
    6.8614    3.0643    1.8628 H   0  0  0  0  0  0  0  0  0  0  0  0
    7.3358    0.6632    1.7195 H   0  0  0  0  0  0  0  0  0  0  0  0
    5.7042   -0.8453    0.5939 H   0  0  0  0  0  0  0  0  0  0  0  0
  1  2  2  0
  1  6  1  0
  1  7  1  0
  2  3  1  0
  3  4  2  0
  4  5  1  0
  4 10  1  0
  5  6  2  0
  5 11  1  0
  7  8  1  0
  7  9  2  3
 10 12  1  0
 11 12  2  0
 12 13  1  0
 13 14  2  0
 13 18  1  0
 14 15  1  0
 15 16  2  0
 16 17  1  0
 17 18  2  0
 17 20  1  0
 18 19  1  0
 20 21  2  0
 20 25  1  0
 21 22  1  0
 22 23  2  0
 23 24  1  0
 24 25  2  0
  2 26  1  0
  3 27  1  0
  6 28  1  0
  8 29  1  0
  8 30  1  0
  9 31  1  0
  9 32  1  0
 10 33  1  0
 11 34  1  0
 14 35  1  0
 15 36  1  0
 16 37  1  0
 21 38  1  0
 22 39  1  0
 23 40  1  0
 24 41  1  0
 25 42  1  0
M  CHG  2   9   1  19  -1
M  END

