46505828
     RDKit          3D

 82 83  0  0  1  0  0  0  0  0999 V2000
    3.7434   -1.2424    0.2776 O   0  0  0  0  0  0  0  0  0  0  0  0
   -1.8912    0.0665   -1.4905 O   0  0  0  0  0  0  0  0  0  0  0  0
    5.1513    1.7943    2.3058 O   0  0  0  0  0  0  0  0  0  0  0  0
   -4.9986    1.2821    2.1787 O   0  0  0  0  0  0  0  0  0  0  0  0
    6.3157    0.6695    0.7353 O   0  0  0  0  0  0  0  0  0  0  0  0
   -5.0334   -0.9087    1.7097 O   0  0  0  0  0  0  0  0  0  0  0  0
   -0.0206   -1.2478   -0.8222 O   0  0  0  0  0  0  0  0  0  0  0  0
    4.0626    1.1983    0.2145 N   0  0  0  0  0  0  0  0  0  0  0  0
   -4.1413    0.3786    0.0180 N   0  0  0  0  0  0  0  0  0  0  0  0
    2.4178   -1.3243   -1.5935 N   0  0  0  0  0  0  0  0  0  0  0  0
   -2.2757   -2.1795   -1.9599 N   0  0  0  0  0  0  0  0  0  0  0  0
    1.4547   -1.9776   -2.4554 N   0  0  0  0  0  0  0  0  0  0  0  0
   -1.0234   -2.3626   -2.5723 N   0  0  0  0  0  0  0  0  0  0  0  0
    5.8163    1.7969   -2.0704 C   0  0  0  0  0  0  0  0  0  0  0  0
   -5.5662   -0.1709   -2.6101 C   0  0  0  0  0  0  0  0  0  0  0  0
    5.1757    0.4761   -1.8185 C   0  0  0  0  0  0  0  0  0  0  0  0
   -5.0917   -1.1610   -1.6265 C   0  0  0  0  0  0  0  0  0  0  0  0
    3.8808    0.6269   -1.0801 C   0  0  1  0  0  0  0  0  0  0  0  0
   -3.9196   -0.7941   -0.7612 C   0  0  1  0  0  0  0  0  0  0  0  0
    4.9485    2.6908   -2.9572 C   0  0  0  0  0  0  0  0  0  0  0  0
    7.1693    1.6624   -2.7349 C   0  0  0  0  0  0  0  0  0  0  0  0
   -6.0469    1.1477   -2.0452 C   0  0  0  0  0  0  0  0  0  0  0  0
   -4.5835    0.1693   -3.7170 C   0  0  0  0  0  0  0  0  0  0  0  0
    3.2515   -0.7614   -0.8450 C   0  0  0  0  0  0  0  0  0  0  0  0
   -2.6176   -0.9208   -1.4314 C   0  0  0  0  0  0  0  0  0  0  0  0
    5.2104    1.1864    1.0291 C   0  0  0  0  0  0  0  0  0  0  0  0
   -4.7203    0.2626    1.3018 C   0  0  0  0  0  0  0  0  0  0  0  0
    0.1442   -1.8755   -1.9714 C   0  0  0  0  0  0  0  0  0  0  0  0
    6.3587    1.7325    3.0849 C   0  0  0  0  0  0  0  0  0  0  0  0
   -5.6342    0.9948    3.4402 C   0  0  0  0  0  0  0  0  0  0  0  0
    6.6925    0.2884    3.2068 C   0  0  0  0  0  0  0  0  0  0  0  0
   -6.9421    0.3753    3.0343 C   0  0  0  0  0  0  0  0  0  0  0  0
    5.8122   -0.6412    3.6409 C   0  0  0  0  0  0  0  0  0  0  0  0
   -7.8214    1.1826    2.3588 C   0  0  0  0  0  0  0  0  0  0  0  0
    7.9750   -0.1015    2.8253 C   0  0  0  0  0  0  0  0  0  0  0  0
   -7.2581   -0.9206    3.2886 C   0  0  0  0  0  0  0  0  0  0  0  0
    6.1358   -1.9921    3.7198 C   0  0  0  0  0  0  0  0  0  0  0  0
   -9.0111    0.6587    1.9448 C   0  0  0  0  0  0  0  0  0  0  0  0
    8.3092   -1.4476    2.9000 C   0  0  0  0  0  0  0  0  0  0  0  0
   -8.4627   -1.4426    2.8709 C   0  0  0  0  0  0  0  0  0  0  0  0
    7.3985   -2.3820    3.3408 C   0  0  0  0  0  0  0  0  0  0  0  0
   -9.3803   -0.6515    2.1763 C   0  0  0  0  0  0  0  0  0  0  0  0
    3.2017    1.7001    0.6038 H   0  0  0  0  0  0  0  0  0  0  0  0
   -3.8646    1.3113   -0.3296 H   0  0  0  0  0  0  0  0  0  0  0  0
    2.3240   -2.4900   -0.8732 H   0  0  0  0  0  0  0  0  0  0  0  0
   -2.9592   -2.9694   -1.8890 H   0  0  0  0  0  0  0  0  0  0  0  0
    1.7672   -2.4348   -3.2756 H   0  0  0  0  0  0  0  0  0  0  0  0
   -1.0401   -2.8773   -3.4709 H   0  0  0  0  0  0  0  0  0  0  0  0
    5.9933    2.4189   -1.1599 H   0  0  0  0  0  0  0  0  0  0  0  0
   -6.4435   -0.6328   -3.1445 H   0  0  0  0  0  0  0  0  0  0  0  0
    5.0023   -0.0821   -2.7870 H   0  0  0  0  0  0  0  0  0  0  0  0
    5.9151   -0.1847   -1.2961 H   0  0  0  0  0  0  0  0  0  0  0  0
   -5.9245   -1.4219   -0.9484 H   0  0  0  0  0  0  0  0  0  0  0  0
   -4.7589   -2.0636   -2.2084 H   0  0  0  0  0  0  0  0  0  0  0  0
    3.1605    1.2505   -1.6256 H   0  0  0  0  0  0  0  0  0  0  0  0
   -3.9126   -1.6554    0.0130 H   0  0  0  0  0  0  0  0  0  0  0  0
    5.4129    2.6794   -3.9800 H   0  0  0  0  0  0  0  0  0  0  0  0
    3.9331    2.2882   -3.1122 H   0  0  0  0  0  0  0  0  0  0  0  0
    4.9585    3.7354   -2.6244 H   0  0  0  0  0  0  0  0  0  0  0  0
    7.1691    1.0713   -3.6664 H   0  0  0  0  0  0  0  0  0  0  0  0
    7.8326    1.1041   -2.0103 H   0  0  0  0  0  0  0  0  0  0  0  0
    7.6863    2.6354   -2.8783 H   0  0  0  0  0  0  0  0  0  0  0  0
   -5.2605    1.9236   -2.0906 H   0  0  0  0  0  0  0  0  0  0  0  0
   -6.3248    0.9658   -0.9777 H   0  0  0  0  0  0  0  0  0  0  0  0
   -6.9828    1.4407   -2.5589 H   0  0  0  0  0  0  0  0  0  0  0  0
   -3.7093    0.7376   -3.3580 H   0  0  0  0  0  0  0  0  0  0  0  0
   -5.1451    0.9130   -4.3721 H   0  0  0  0  0  0  0  0  0  0  0  0
   -4.3458   -0.6811   -4.3548 H   0  0  0  0  0  0  0  0  0  0  0  0
    7.0978    2.2885    2.4965 H   0  0  0  0  0  0  0  0  0  0  0  0
    6.1454    2.2080    4.0474 H   0  0  0  0  0  0  0  0  0  0  0  0
   -5.8235    1.8840    4.0375 H   0  0  0  0  0  0  0  0  0  0  0  0
   -5.0929    0.2598    4.0167 H   0  0  0  0  0  0  0  0  0  0  0  0
    4.8227   -0.3211    3.9415 H   0  0  0  0  0  0  0  0  0  0  0  0
   -7.5742    2.2373    2.1454 H   0  0  0  0  0  0  0  0  0  0  0  0
    8.7177    0.5804    2.4768 H   0  0  0  0  0  0  0  0  0  0  0  0
   -6.5742   -1.5820    3.8329 H   0  0  0  0  0  0  0  0  0  0  0  0
    5.4177   -2.6841    4.0525 H   0  0  0  0  0  0  0  0  0  0  0  0
   -9.7109    1.3187    1.4026 H   0  0  0  0  0  0  0  0  0  0  0  0
    9.3125   -1.7907    2.6007 H   0  0  0  0  0  0  0  0  0  0  0  0
   -8.7463   -2.4591    3.0468 H   0  0  0  0  0  0  0  0  0  0  0  0
    7.6715   -3.4516    3.3985 H   0  0  0  0  0  0  0  0  0  0  0  0
  -10.3327   -1.0670    1.8390 H   0  0  0  0  0  0  0  0  0  0  0  0
  1 24  2  0
  2 25  2  0
  3 26  1  0
  3 29  1  0
  4 27  1  0
  4 30  1  0
  5 26  2  0
  6 27  2  0
  7 28  2  0
 18  8  1  0
  8 26  1  0
 19  9  1  0
  9 27  1  0
 10 12  1  0
 10 24  1  0
 11 13  1  0
 11 25  1  0
 12 28  1  0
 13 28  1  0
 14 16  1  0
 14 20  1  0
 14 21  1  0
 15 17  1  0
 15 22  1  0
 15 23  1  0
 16 18  1  0
 17 19  1  0
 18 24  1  0
 19 25  1  0
 29 31  1  0
 30 32  1  0
 31 33  2  0
 31 35  1  0
 32 34  2  0
 32 36  1  0
 33 37  1  0
 34 38  1  0
 35 39  2  0
 36 40  2  0
 37 41  2  0
 38 42  2  0
 39 41  1  0
 40 42  1  0
  8 43  1  0
  9 44  1  0
 10 45  1  0
 11 46  1  0
 12 47  1  0
 13 48  1  0
 14 49  1  0
 15 50  1  0
 16 51  1  0
 16 52  1  0
 17 53  1  0
 17 54  1  0
 18 55  1  6
 19 56  1  1
 20 57  1  0
 20 58  1  0
 20 59  1  0
 21 60  1  0
 21 61  1  0
 21 62  1  0
 22 63  1  0
 22 64  1  0
 22 65  1  0
 23 66  1  0
 23 67  1  0
 23 68  1  0
 29 69  1  0
 29 70  1  0
 30 71  1  0
 30 72  1  0
 33 73  1  0
 34 74  1  0
 35 75  1  0
 36 76  1  0
 37 77  1  0
 38 78  1  0
 39 79  1  0
 40 80  1  0
 41 81  1  0
 42 82  1  0
M  END

