46505518
     RDKit          3D

 81 84  0  0  1  0  0  0  0  0999 V2000
   -7.4404    3.8586    0.0371 C   0  0  0  0  0  0  0  0  0  0  0  0
   -6.6747    4.6642    0.8445 C   0  0  0  0  0  0  0  0  0  0  0  0
   -5.4474    4.2067    1.3643 C   0  0  0  0  0  0  0  0  0  0  0  0
   -5.0904    2.9117    1.0012 C   0  0  0  0  0  0  0  0  0  0  0  0
   -5.8389    2.0983    0.1985 C   0  0  0  0  0  0  0  0  0  0  0  0
   -7.0570    2.6003   -0.2952 C   0  0  0  0  0  0  0  0  0  0  0  0
   -3.8557    2.3881    1.5586 C   0  0  0  0  0  0  0  0  0  0  0  0
   -3.4660    0.9895    1.2336 C   0  0  0  0  0  0  0  0  0  0  0  0
   -4.5144    0.0763    0.8037 C   0  0  1  0  0  0  0  0  0  0  0  0
   -5.3998    0.7649   -0.1887 C   0  0  1  0  0  0  0  0  0  0  0  0
   -2.2292    0.6477    1.3622 C   0  0  0  0  0  0  0  0  0  0  0  0
   -1.7478   -0.7103    1.0695 C   0  0  1  0  0  0  0  0  0  0  0  0
   -2.6390   -1.5840    0.3087 C   0  0  1  0  0  0  0  0  0  0  0  0
   -4.0676   -1.2004    0.1633 C   0  0  0  0  0  0  0  0  0  0  0  0
   -0.3906   -0.5631    0.4730 C   0  0  0  0  0  0  0  0  0  0  0  0
    0.1691   -1.6477   -0.3144 C   0  0  0  0  0  0  0  0  0  0  0  0
   -0.7081   -2.3070   -1.0764 C   0  0  0  0  0  0  0  0  0  0  0  0
   -2.1250   -1.9298   -1.0850 C   0  0  1  0  0  0  0  0  0  0  0  0
   -4.7058    5.0144    2.1578 O   0  0  0  0  0  0  0  0  0  0  0  0
   -3.0752    3.0172    2.3011 O   0  0  0  0  0  0  0  0  0  0  0  0
   -1.3108    1.6344    1.8048 O   0  0  0  0  0  0  0  0  0  0  0  0
    0.2420    0.4838    0.6569 O   0  0  0  0  0  0  0  0  0  0  0  0
   -0.2649   -3.3539   -1.8611 O   0  0  0  0  0  0  0  0  0  0  0  0
    1.5765   -1.9993   -0.2926 C   0  0  0  0  0  0  0  0  0  0  0  0
    2.4935   -1.3163    0.5187 N   0  0  0  0  0  0  0  0  0  0  0  0
    2.0378   -2.9377   -1.0055 O   0  0  0  0  0  0  0  0  0  0  0  0
    3.9078   -1.6446    0.5586 C   0  0  0  0  0  0  0  0  0  0  0  0
    4.4976   -1.4946   -0.7229 N   0  0  0  0  0  0  0  0  0  0  0  0
    5.8938   -1.8036   -0.8091 C   0  0  0  0  0  0  0  0  0  0  0  0
    6.6809   -0.7628   -0.0406 C   0  0  0  0  0  0  0  0  0  0  0  0
    6.3923    0.5641   -0.6552 C   0  0  0  0  0  0  0  0  0  0  0  0
    7.0594    1.7393   -0.0395 C   0  0  0  0  0  0  0  0  0  0  0  0
    8.5545    1.7242   -0.0352 C   0  0  2  0  0  0  0  0  0  0  0  0
    9.1295    0.6167    0.6782 N   0  0  0  0  0  0  0  0  0  0  0  0
    9.0050    2.9853    0.6014 C   0  0  0  0  0  0  0  0  0  0  0  0
    9.7593    2.9240    1.5976 O   0  0  0  0  0  0  0  0  0  0  0  0
    8.6150    4.2091    0.1247 O   0  0  0  0  0  0  0  0  0  0  0  0
   -6.5772   -0.1120   -0.6000 C   0  0  0  0  0  0  0  0  0  0  0  0
   -4.6141    0.9371   -1.3620 O   0  0  0  0  0  0  0  0  0  0  0  0
   -2.9824   -2.9535   -1.6174 N   0  0  0  0  0  0  0  0  0  0  0  0
   -2.9820   -4.1794   -0.8906 C   0  0  0  0  0  0  0  0  0  0  0  0
   -2.9581   -3.0904   -3.0319 C   0  0  0  0  0  0  0  0  0  0  0  0
   -1.4811   -1.2828    2.3497 O   0  0  0  0  0  0  0  0  0  0  0  0
   -8.3936    4.2121   -0.3665 H   0  0  0  0  0  0  0  0  0  0  0  0
   -6.9905    5.6575    1.0986 H   0  0  0  0  0  0  0  0  0  0  0  0
   -7.6166    1.9289   -0.9215 H   0  0  0  0  0  0  0  0  0  0  0  0
   -5.1407   -0.1766    1.7098 H   0  0  0  0  0  0  0  0  0  0  0  0
   -2.6454   -2.5948    0.8355 H   0  0  0  0  0  0  0  0  0  0  0  0
   -4.3452   -1.1512   -0.9363 H   0  0  0  0  0  0  0  0  0  0  0  0
   -4.7619   -2.0160    0.5376 H   0  0  0  0  0  0  0  0  0  0  0  0
   -2.2359   -1.0295   -1.7232 H   0  0  0  0  0  0  0  0  0  0  0  0
   -3.8809    5.0036    2.6369 H   0  0  0  0  0  0  0  0  0  0  0  0
   -1.1086    2.3512    1.0901 H   0  0  0  0  0  0  0  0  0  0  0  0
    0.0441   -4.2151   -1.4188 H   0  0  0  0  0  0  0  0  0  0  0  0
    2.1703   -0.5458    1.1265 H   0  0  0  0  0  0  0  0  0  0  0  0
    4.4190   -1.0382    1.3005 H   0  0  0  0  0  0  0  0  0  0  0  0
    4.0373   -2.7267    0.8564 H   0  0  0  0  0  0  0  0  0  0  0  0
    4.1553   -0.7552   -1.3320 H   0  0  0  0  0  0  0  0  0  0  0  0
    6.1302   -2.7994   -0.3693 H   0  0  0  0  0  0  0  0  0  0  0  0
    6.2590   -1.8237   -1.8562 H   0  0  0  0  0  0  0  0  0  0  0  0
    7.7513   -1.0735   -0.1731 H   0  0  0  0  0  0  0  0  0  0  0  0
    6.3775   -0.8307    1.0225 H   0  0  0  0  0  0  0  0  0  0  0  0
    5.2813    0.7347   -0.5397 H   0  0  0  0  0  0  0  0  0  0  0  0
    6.5426    0.4918   -1.7480 H   0  0  0  0  0  0  0  0  0  0  0  0
    6.6820    1.9729    0.9747 H   0  0  0  0  0  0  0  0  0  0  0  0
    6.7649    2.6358   -0.6613 H   0  0  0  0  0  0  0  0  0  0  0  0
    8.9216    1.6899   -1.1006 H   0  0  0  0  0  0  0  0  0  0  0  0
    9.4971    0.9235    1.6243 H   0  0  0  0  0  0  0  0  0  0  0  0
    9.9078    0.2012    0.1232 H   0  0  0  0  0  0  0  0  0  0  0  0
    9.2842    4.9585   -0.0318 H   0  0  0  0  0  0  0  0  0  0  0  0
   -6.2884   -1.1672   -0.4667 H   0  0  0  0  0  0  0  0  0  0  0  0
   -6.7880    0.0673   -1.6529 H   0  0  0  0  0  0  0  0  0  0  0  0
   -7.4227    0.1069    0.0918 H   0  0  0  0  0  0  0  0  0  0  0  0
   -4.2166    1.8419   -1.3791 H   0  0  0  0  0  0  0  0  0  0  0  0
   -3.8526   -4.1692   -0.1815 H   0  0  0  0  0  0  0  0  0  0  0  0
   -2.0633   -4.2210   -0.2702 H   0  0  0  0  0  0  0  0  0  0  0  0
   -2.9867   -5.0829   -1.5344 H   0  0  0  0  0  0  0  0  0  0  0  0
   -2.4010   -4.0236   -3.2765 H   0  0  0  0  0  0  0  0  0  0  0  0
   -2.6112   -2.2184   -3.5829 H   0  0  0  0  0  0  0  0  0  0  0  0
   -4.0153   -3.2891   -3.3740 H   0  0  0  0  0  0  0  0  0  0  0  0
   -0.8307   -2.0130    2.1607 H   0  0  0  0  0  0  0  0  0  0  0  0
  1  2  2  0
  2  3  1  0
  3  4  2  0
  4  5  1  0
  5  6  2  0
  1  6  1  0
  4  7  1  0
  7  8  1  0
  8  9  1  0
  9 10  1  0
  5 10  1  0
  8 11  2  0
 11 12  1  0
 12 13  1  0
 13 14  1  0
  9 14  1  0
 12 15  1  0
 15 16  1  0
 16 17  2  0
 17 18  1  0
 13 18  1  0
  3 19  1  0
  7 20  2  0
 11 21  1  0
 15 22  2  0
 17 23  1  0
 16 24  1  0
 24 25  1  0
 24 26  2  0
 25 27  1  0
 27 28  1  0
 28 29  1  0
 29 30  1  0
 30 31  1  0
 31 32  1  0
 32 33  1  0
 33 34  1  0
 33 35  1  0
 35 36  2  0
 35 37  1  0
 10 38  1  0
 10 39  1  6
 18 40  1  0
 40 41  1  0
 40 42  1  0
 12 43  1  1
  1 44  1  0
  2 45  1  0
  6 46  1  0
  9 47  1  1
 13 48  1  1
 14 49  1  0
 14 50  1  0
 18 51  1  6
 19 52  1  0
 21 53  1  0
 23 54  1  0
 25 55  1  0
 27 56  1  0
 27 57  1  0
 28 58  1  0
 29 59  1  0
 29 60  1  0
 30 61  1  0
 30 62  1  0
 31 63  1  0
 31 64  1  0
 32 65  1  0
 32 66  1  0
 33 67  1  6
 34 68  1  0
 34 69  1  0
 37 70  1  0
 38 71  1  0
 38 72  1  0
 38 73  1  0
 39 74  1  0
 41 75  1  0
 41 76  1  0
 41 77  1  0
 42 78  1  0
 42 79  1  0
 42 80  1  0
 43 81  1  0
M  END

