46508132
     RDKit          3D

 21 20  0  0  0  0  0  0  0  0999 V2000
    2.8630    0.5350   -1.1456 O   0  0  0  0  0  0  0  0  0  0  0  0
   -0.4562   -0.1719    0.1725 N   0  0  0  0  0  4  0  0  0  0  0  0
    0.8453   -0.4725   -0.3267 C   0  0  0  0  0  0  0  0  0  0  0  0
   -0.5484    1.1482    0.7842 C   0  0  0  0  0  0  0  0  0  0  0  0
   -0.8178   -1.1485    1.2137 C   0  0  0  0  0  0  0  0  0  0  0  0
   -1.5035   -0.2689   -0.8262 C   0  0  0  0  0  0  0  0  0  0  0  0
    1.6083    0.7862   -0.6631 C   0  0  0  0  0  0  0  0  0  0  0  0
    3.1108   -0.3938   -1.2546 H   0  0  0  0  0  0  0  0  0  0  0  0
    1.4086   -0.9868    0.4835 H   0  0  0  0  0  0  0  0  0  0  0  0
    0.7320   -1.1144   -1.2237 H   0  0  0  0  0  0  0  0  0  0  0  0
    0.1735    1.2459    1.6221 H   0  0  0  0  0  0  0  0  0  0  0  0
   -0.3496    1.8798   -0.0323 H   0  0  0  0  0  0  0  0  0  0  0  0
   -1.5566    1.2525    1.2215 H   0  0  0  0  0  0  0  0  0  0  0  0
   -1.7562   -0.8045    1.7111 H   0  0  0  0  0  0  0  0  0  0  0  0
   -1.0270   -2.0992    0.6685 H   0  0  0  0  0  0  0  0  0  0  0  0
    0.0153   -1.2789    1.9406 H   0  0  0  0  0  0  0  0  0  0  0  0
   -2.4200    0.1974   -0.3634 H   0  0  0  0  0  0  0  0  0  0  0  0
   -1.2798    0.2573   -1.7555 H   0  0  0  0  0  0  0  0  0  0  0  0
   -1.7907   -1.3403   -1.0105 H   0  0  0  0  0  0  0  0  0  0  0  0
    1.6967    1.4132    0.2397 H   0  0  0  0  0  0  0  0  0  0  0  0
    1.0524    1.3643   -1.4559 H   0  0  0  0  0  0  0  0  0  0  0  0
  1  7  1  0
  2  3  1  0
  2  4  1  0
  2  5  1  0
  2  6  1  0
  3  7  1  0
  1  8  1  0
  3  9  1  0
  3 10  1  0
  4 11  1  0
  4 12  1  0
  4 13  1  0
  5 14  1  0
  5 15  1  0
  5 16  1  0
  6 17  1  0
  6 18  1  0
  6 19  1  0
  7 20  1  0
  7 21  1  0
M  CHG  1   2   1
M  END

