46506973
     RDKit          3D

 63 67  0  0  1  0  0  0  0  0999 V2000
   -1.5586   -0.4781   -0.5789 O   0  0  0  0  0  0  0  0  0  0  0  0
   -3.5715   -1.3877   -0.9482 O   0  0  0  0  0  0  0  0  0  0  0  0
   -1.2108    2.3254   -1.0558 O   0  0  0  0  0  0  0  0  0  0  0  0
   -4.8168    0.6258    1.6390 O   0  0  0  0  0  0  0  0  0  0  0  0
    0.7811   -2.2649    0.2227 O   0  0  0  0  0  0  0  0  0  0  0  0
    3.3156    2.5272   -0.7224 O   0  0  0  0  0  0  0  0  0  0  0  0
   -0.4960    2.6363   -4.4447 O   0  0  0  0  0  0  0  0  0  0  0  0
    2.8508   -2.8686    1.7534 O   0  0  0  0  0  0  0  0  0  0  0  0
    5.1228    1.7808    0.7265 O   0  0  0  0  0  0  0  0  0  0  0  0
   -4.8661   -2.0974    1.5082 N   0  0  0  0  0  0  0  0  0  0  0  0
   -0.4722   -0.4654   -1.4333 C   0  0  1  0  0  0  0  0  0  0  0  0
   -0.5212    1.9089   -2.2008 C   0  0  2  0  0  0  0  0  0  0  0  0
   -0.8527    0.4806   -2.5565 C   0  0  0  0  0  0  0  0  0  0  0  0
    0.9207    2.1540   -1.9622 C   0  0  0  0  0  0  0  0  0  0  0  0
    0.8162   -0.1247   -0.8431 C   0  0  0  0  0  0  0  0  0  0  0  0
    1.4447    1.0538   -1.0730 C   0  0  0  0  0  0  0  0  0  0  0  0
   -2.2606   -1.6310   -0.4656 C   0  0  2  0  0  0  0  0  0  0  0  0
   -2.4679   -2.1514    0.9367 C   0  0  0  0  0  0  0  0  0  0  0  0
   -3.5768   -1.4045    1.6489 C   0  0  1  0  0  0  0  0  0  0  0  0
   -3.7740   -0.0284    1.0298 C   0  0  1  0  0  0  0  0  0  0  0  0
   -3.9716   -0.1485   -0.4682 C   0  0  2  0  0  0  0  0  0  0  0  0
    1.4186   -1.0749   -0.0044 C   0  0  0  0  0  0  0  0  0  0  0  0
   -0.9421    2.7778   -3.3253 C   0  0  0  0  0  0  0  0  0  0  0  0
    2.6881    1.3233   -0.4769 C   0  0  0  0  0  0  0  0  0  0  0  0
    2.6378   -0.8283    0.5893 C   0  0  0  0  0  0  0  0  0  0  0  0
    3.2736    0.3880    0.3451 C   0  0  0  0  0  0  0  0  0  0  0  0
   -5.4122    0.1494   -0.8484 C   0  0  0  0  0  0  0  0  0  0  0  0
   -1.9319    3.8502   -3.0898 C   0  0  0  0  0  0  0  0  0  0  0  0
    3.3357   -1.7511    1.4705 C   0  0  0  0  0  0  0  0  0  0  0  0
    4.5792    0.6739    0.9693 C   0  0  0  0  0  0  0  0  0  0  0  0
    4.6340   -1.4676    2.0915 C   0  0  0  0  0  0  0  0  0  0  0  0
    5.2491   -0.2751    1.8472 C   0  0  0  0  0  0  0  0  0  0  0  0
    5.2506   -2.3959    2.9272 C   0  0  0  0  0  0  0  0  0  0  0  0
    6.4685   -0.0131    2.4324 C   0  0  0  0  0  0  0  0  0  0  0  0
    6.4606   -2.1280    3.5039 C   0  0  0  0  0  0  0  0  0  0  0  0
    7.0902   -0.9324    3.2665 C   0  0  0  0  0  0  0  0  0  0  0  0
   -0.6297    2.0715   -0.2887 H   0  0  0  0  0  0  0  0  0  0  0  0
   -5.6924    0.2261    1.5050 H   0  0  0  0  0  0  0  0  0  0  0  0
    1.0605   -3.0021    0.7613 H   0  0  0  0  0  0  0  0  0  0  0  0
    3.0260    3.2802   -1.2852 H   0  0  0  0  0  0  0  0  0  0  0  0
   -4.7312   -3.1334    1.5551 H   0  0  0  0  0  0  0  0  0  0  0  0
   -5.5351   -1.8025    2.2272 H   0  0  0  0  0  0  0  0  0  0  0  0
   -0.3966   -1.4731   -1.8789 H   0  0  0  0  0  0  0  0  0  0  0  0
   -1.9278    0.4339   -2.7873 H   0  0  0  0  0  0  0  0  0  0  0  0
   -0.3113    0.2476   -3.4935 H   0  0  0  0  0  0  0  0  0  0  0  0
    1.0450    3.1080   -1.4001 H   0  0  0  0  0  0  0  0  0  0  0  0
    1.5406    2.1359   -2.8762 H   0  0  0  0  0  0  0  0  0  0  0  0
   -1.8536   -2.4738   -1.0775 H   0  0  0  0  0  0  0  0  0  0  0  0
   -1.5748   -2.2677    1.5387 H   0  0  0  0  0  0  0  0  0  0  0  0
   -2.8731   -3.1989    0.7950 H   0  0  0  0  0  0  0  0  0  0  0  0
   -3.3900   -1.2626    2.7212 H   0  0  0  0  0  0  0  0  0  0  0  0
   -2.8363    0.5402    1.2736 H   0  0  0  0  0  0  0  0  0  0  0  0
   -3.3758    0.6685   -0.9197 H   0  0  0  0  0  0  0  0  0  0  0  0
   -5.5142    0.2961   -1.9430 H   0  0  0  0  0  0  0  0  0  0  0  0
   -5.6889    1.1247   -0.3895 H   0  0  0  0  0  0  0  0  0  0  0  0
   -6.0821   -0.6636   -0.5449 H   0  0  0  0  0  0  0  0  0  0  0  0
   -1.5019    4.8556   -3.2876 H   0  0  0  0  0  0  0  0  0  0  0  0
   -2.7770    3.6904   -3.7899 H   0  0  0  0  0  0  0  0  0  0  0  0
   -2.3230    3.8156   -2.0499 H   0  0  0  0  0  0  0  0  0  0  0  0
    4.7652   -3.3454    3.1244 H   0  0  0  0  0  0  0  0  0  0  0  0
    6.9584    0.9334    2.2395 H   0  0  0  0  0  0  0  0  0  0  0  0
    6.9349   -2.8479    4.1493 H   0  0  0  0  0  0  0  0  0  0  0  0
    8.0492   -0.6955    3.7108 H   0  0  0  0  0  0  0  0  0  0  0  0
 11  1  1  0
 17  1  1  0
  2 17  1  0
  2 21  1  0
 12  3  1  1
 20  4  1  0
  5 22  1  0
  6 24  1  0
  7 23  2  0
  8 29  2  0
  9 30  2  0
 19 10  1  0
 11 13  1  0
 11 15  1  0
 12 13  1  0
 12 14  1  0
 12 23  1  0
 14 16  1  0
 15 16  2  0
 15 22  1  0
 16 24  1  0
 17 18  1  0
 18 19  1  0
 19 20  1  0
 20 21  1  0
 21 27  1  0
 22 25  2  0
 23 28  1  0
 24 26  2  0
 25 26  1  0
 25 29  1  0
 26 30  1  0
 29 31  1  0
 30 32  1  0
 31 32  2  0
 31 33  1  0
 32 34  1  0
 33 35  2  0
 34 36  2  0
 35 36  1  0
  3 37  1  0
  4 38  1  0
  5 39  1  0
  6 40  1  0
 10 41  1  0
 10 42  1  0
 11 43  1  6
 13 44  1  0
 13 45  1  0
 14 46  1  0
 14 47  1  0
 17 48  1  6
 18 49  1  0
 18 50  1  0
 19 51  1  1
 20 52  1  6
 21 53  1  6
 27 54  1  0
 27 55  1  0
 27 56  1  0
 28 57  1  0
 28 58  1  0
 28 59  1  0
 33 60  1  0
 34 61  1  0
 35 62  1  0
 36 63  1  0
M  END

