46507258
     RDKit          3D

 17 18  0  0  0  0  0  0  0  0999 V2000
   -2.1787   -0.6521   -0.3156 C   0  0  0  0  0  0  0  0  0  0  0  0
   -2.2407    0.7233   -0.2213 C   0  0  0  0  0  0  0  0  0  0  0  0
   -1.0491    1.3921   -0.0256 C   0  0  0  0  0  0  0  0  0  0  0  0
    0.1680    0.7411    0.0755 C   0  0  0  0  0  0  0  0  0  0  0  0
    1.3542    1.4170    0.2711 C   0  0  0  0  0  0  0  0  0  0  0  0
    2.5476    0.7937    0.3713 N   0  0  0  0  0  0  0  0  0  0  0  0
    2.6203   -0.5451    0.2810 C   0  0  0  0  0  0  0  0  0  0  0  0
    1.4428   -1.2394    0.0852 C   0  0  0  0  0  0  0  0  0  0  0  0
    0.2222   -0.6308   -0.0195 C   0  0  0  0  0  0  0  0  0  0  0  0
   -0.9664   -1.3141   -0.2159 C   0  0  0  0  0  0  0  0  0  0  0  0
   -3.1049   -1.1878   -0.4688 H   0  0  0  0  0  0  0  0  0  0  0  0
   -3.1905    1.2570   -0.2982 H   0  0  0  0  0  0  0  0  0  0  0  0
   -1.0807    2.4759    0.0508 H   0  0  0  0  0  0  0  0  0  0  0  0
    1.2705    2.5058    0.3414 H   0  0  0  0  0  0  0  0  0  0  0  0
    3.5835   -1.0307    0.3632 H   0  0  0  0  0  0  0  0  0  0  0  0
    1.5070   -2.3081    0.0139 H   0  0  0  0  0  0  0  0  0  0  0  0
   -0.9051   -2.3976   -0.2886 H   0  0  0  0  0  0  0  0  0  0  0  0
  1  2  2  0
  2  3  1  0
  3  4  2  0
  4  5  1  0
  5  6  2  0
  6  7  1  0
  7  8  2  0
  8  9  1  0
  4  9  1  0
  9 10  2  0
  1 10  1  0
  1 11  1  0
  2 12  1  0
  3 13  1  0
  5 14  1  0
  7 15  1  0
  8 16  1  0
 10 17  1  0
M  END

