46506376
     RDKit          3D

 95 95  0  0  0  0  0  0  0  0999 V2000
    8.1724   -0.2232    0.5179 C   0  0  0  0  0  0  0  0  0  0  0  0
    9.3258   -0.9268    0.3870 C   0  0  0  0  0  0  0  0  0  0  0  0
    8.1418    1.1165    0.1352 C   0  0  0  0  0  0  0  0  0  0  0  0
   10.4617   -0.3403   -0.1171 C   0  0  0  0  0  0  0  0  0  0  0  0
    9.2548    1.7264   -0.3677 C   0  0  0  0  0  0  0  0  0  0  0  0
   10.4373    0.9805   -0.4951 C   0  0  0  0  0  0  0  0  0  0  0  0
    3.4752    0.1308    1.7328 C   0  0  0  0  0  0  0  0  0  0  0  0
    4.6086   -0.8521    1.7213 C   0  0  0  0  0  0  0  0  0  0  0  0
    5.7585   -0.1580    1.1876 O   0  0  0  0  0  0  0  0  0  0  0  0
    2.3326   -0.4341    2.2398 O   0  0  0  0  0  0  0  0  0  0  0  0
    1.9580   -1.5324    1.4725 C   0  0  0  0  0  0  0  0  0  0  0  0
    0.1785   -3.1389    1.5149 O   0  0  0  0  0  0  0  0  0  0  0  0
    0.6745   -2.0974    2.0883 C   0  0  0  0  0  0  0  0  0  0  0  0
    0.1572   -2.8407   -0.8919 C   0  0  0  0  0  0  0  0  0  0  0  0
   -0.4468   -3.3603    0.3940 C   0  0  0  0  0  0  0  0  0  0  0  0
    6.9630   -0.8217    1.0420 C   0  0  0  0  0  0  0  0  0  0  0  0
    6.9876   -2.0245    1.3934 O   0  0  0  0  0  0  0  0  0  0  0  0
   11.5500    1.6746   -0.9967 N   0  0  0  0  0  0  0  0  0  0  0  0
   -9.1153   -0.6226   -0.3390 C   0  0  0  0  0  0  0  0  0  0  0  0
   -7.5905   -0.6055   -0.2613 C   0  0  0  0  0  0  0  0  0  0  0  0
   -9.7309    0.0836    0.6347 O   0  0  0  0  0  0  0  0  0  0  0  0
   -9.5216    1.4133    0.7499 C   0  0  0  0  0  0  0  0  0  0  0  0
  -11.2792    2.2493   -0.6723 O   0  0  0  0  0  0  0  0  0  0  0  0
   -9.9505    2.2819   -0.3882 C   0  0  0  0  0  0  0  0  0  0  0  0
   -1.7159   -2.7308   -2.3900 C   0  0  0  0  0  0  0  0  0  0  0  0
   -1.7437   -0.2654   -2.0292 O   0  0  0  0  0  0  0  0  0  0  0  0
   -1.9077   -1.3156   -2.7878 C   0  0  0  0  0  0  0  0  0  0  0  0
   -2.5696    0.1794   -1.0674 C   0  0  0  0  0  0  0  0  0  0  0  0
   -2.8899   -0.6251    0.1281 C   0  0  0  0  0  0  0  0  0  0  0  0
   -3.7460   -0.0409    1.0005 O   0  0  0  0  0  0  0  0  0  0  0  0
   -5.0692    0.0419    0.7920 C   0  0  0  0  0  0  0  0  0  0  0  0
   -5.6458    0.6420   -0.4162 C   0  0  0  0  0  0  0  0  0  0  0  0
   -7.0531    0.6344   -0.3569 O   0  0  0  0  0  0  0  0  0  0  0  0
   -0.5299   -3.1562   -1.9944 O   0  0  0  0  0  0  0  0  0  0  0  0
  -11.8539    1.0748   -1.0366 C   0  0  0  0  0  0  0  0  0  0  0  0
  -13.3447    1.3692   -1.2894 C   0  0  0  0  0  0  0  0  0  0  0  0
  -13.8652    1.8577   -0.0949 O   0  0  0  0  0  0  0  0  0  0  0  0
  -15.2334    2.1418   -0.2461 C   0  0  0  0  0  0  0  0  0  0  0  0
   12.8304    1.8379   -0.4036 C   0  0  0  0  0  0  0  0  0  0  0  0
   13.5007    0.5856    0.0296 C   0  0  0  0  0  0  0  0  0  0  0  0
   14.8965    0.8300    0.5802 C   0  0  0  0  0  0  0  0  0  0  0  0
   14.8885    1.7215    1.7786 C   0  0  0  0  0  0  0  0  0  0  0  0
    9.3399   -1.9766    0.6883 H   0  0  0  0  0  0  0  0  0  0  0  0
    7.1994    1.6764    0.2467 H   0  0  0  0  0  0  0  0  0  0  0  0
   11.3565   -0.9726   -0.2247 H   0  0  0  0  0  0  0  0  0  0  0  0
    9.2318    2.7633   -0.6631 H   0  0  0  0  0  0  0  0  0  0  0  0
    3.3062    0.4117    0.6505 H   0  0  0  0  0  0  0  0  0  0  0  0
    3.7703    1.0632    2.2814 H   0  0  0  0  0  0  0  0  0  0  0  0
    4.8651   -1.2675    2.7010 H   0  0  0  0  0  0  0  0  0  0  0  0
    4.4237   -1.6664    0.9707 H   0  0  0  0  0  0  0  0  0  0  0  0
    1.8630   -1.1958    0.4540 H   0  0  0  0  0  0  0  0  0  0  0  0
    2.7125   -2.3621    1.5896 H   0  0  0  0  0  0  0  0  0  0  0  0
   -0.0289   -1.1980    2.0777 H   0  0  0  0  0  0  0  0  0  0  0  0
    0.8733   -2.2831    3.1979 H   0  0  0  0  0  0  0  0  0  0  0  0
    0.1425   -1.7028   -0.7439 H   0  0  0  0  0  0  0  0  0  0  0  0
    1.2031   -3.1606   -0.9674 H   0  0  0  0  0  0  0  0  0  0  0  0
   -0.5775   -4.5067    0.2018 H   0  0  0  0  0  0  0  0  0  0  0  0
   -1.5399   -3.0864    0.4967 H   0  0  0  0  0  0  0  0  0  0  0  0
   11.4088    2.1362   -1.9476 H   0  0  0  0  0  0  0  0  0  0  0  0
   -9.3778   -1.7139   -0.1563 H   0  0  0  0  0  0  0  0  0  0  0  0
   -9.4497   -0.4542   -1.3816 H   0  0  0  0  0  0  0  0  0  0  0  0
   -7.1449   -1.3781   -0.9032 H   0  0  0  0  0  0  0  0  0  0  0  0
   -7.4108   -0.9680    0.8053 H   0  0  0  0  0  0  0  0  0  0  0  0
  -10.1610    1.7524    1.6351 H   0  0  0  0  0  0  0  0  0  0  0  0
   -8.4889    1.6898    1.0930 H   0  0  0  0  0  0  0  0  0  0  0  0
   -9.6822    3.3383   -0.1462 H   0  0  0  0  0  0  0  0  0  0  0  0
   -9.4017    2.0567   -1.3316 H   0  0  0  0  0  0  0  0  0  0  0  0
   -2.5031   -3.1108   -1.6887 H   0  0  0  0  0  0  0  0  0  0  0  0
   -1.9763   -3.3720   -3.3334 H   0  0  0  0  0  0  0  0  0  0  0  0
   -1.3775   -1.1388   -3.8075 H   0  0  0  0  0  0  0  0  0  0  0  0
   -3.0077   -1.3039   -3.1985 H   0  0  0  0  0  0  0  0  0  0  0  0
   -3.4414    0.6554   -1.5890 H   0  0  0  0  0  0  0  0  0  0  0  0
   -2.0510    1.1555   -0.6404 H   0  0  0  0  0  0  0  0  0  0  0  0
   -3.2320   -1.6666   -0.1337 H   0  0  0  0  0  0  0  0  0  0  0  0
   -1.9155   -0.7777    0.6834 H   0  0  0  0  0  0  0  0  0  0  0  0
   -5.5096    0.6080    1.6783 H   0  0  0  0  0  0  0  0  0  0  0  0
   -5.5581   -0.9833    0.9190 H   0  0  0  0  0  0  0  0  0  0  0  0
   -5.3334    1.6755   -0.5834 H   0  0  0  0  0  0  0  0  0  0  0  0
   -5.4772   -0.0099   -1.3392 H   0  0  0  0  0  0  0  0  0  0  0  0
  -11.8478    0.2636   -0.2938 H   0  0  0  0  0  0  0  0  0  0  0  0
  -11.4047    0.7032   -2.0080 H   0  0  0  0  0  0  0  0  0  0  0  0
  -13.4162    2.1590   -2.0938 H   0  0  0  0  0  0  0  0  0  0  0  0
  -13.8647    0.4499   -1.6425 H   0  0  0  0  0  0  0  0  0  0  0  0
  -15.7561    1.2061   -0.5092 H   0  0  0  0  0  0  0  0  0  0  0  0
  -15.3357    2.8899   -1.0746 H   0  0  0  0  0  0  0  0  0  0  0  0
  -15.6087    2.5918    0.6818 H   0  0  0  0  0  0  0  0  0  0  0  0
   12.8063    2.6120    0.4153 H   0  0  0  0  0  0  0  0  0  0  0  0
   13.5069    2.3412   -1.1726 H   0  0  0  0  0  0  0  0  0  0  0  0
   13.5534   -0.1886   -0.7343 H   0  0  0  0  0  0  0  0  0  0  0  0
   12.9123    0.1544    0.9085 H   0  0  0  0  0  0  0  0  0  0  0  0
   15.3407   -0.1401    0.8712 H   0  0  0  0  0  0  0  0  0  0  0  0
   15.5627    1.2714   -0.1902 H   0  0  0  0  0  0  0  0  0  0  0  0
   15.7472    1.4396    2.4244 H   0  0  0  0  0  0  0  0  0  0  0  0
   13.9698    1.5472    2.4060 H   0  0  0  0  0  0  0  0  0  0  0  0
   15.0338    2.8030    1.5420 H   0  0  0  0  0  0  0  0  0  0  0  0
  1  2  2  0
  1  3  1  0
  2  4  1  0
  3  5  2  0
  4  6  2  0
  5  6  1  0
  7  8  1  0
  8  9  1  0
  7 10  1  0
 10 11  1  0
 12 13  1  0
 11 13  1  0
 14 15  1  0
 12 15  1  0
  9 16  1  0
 16 17  2  0
  1 16  1  0
  6 18  1  0
 25 27  1  0
 26 27  1  0
 26 28  1  0
 23 24  1  0
 28 29  1  0
 22 24  1  0
 29 30  1  0
 21 22  1  0
 30 31  1  0
 19 21  1  0
 31 32  1  0
 19 20  1  0
 32 33  1  0
 20 33  1  0
 25 34  1  0
 14 34  1  0
 23 35  1  0
 35 36  1  0
 36 37  1  0
 37 38  1  0
 18 39  1  0
 39 40  1  0
 40 41  1  0
 41 42  1  0
  2 43  1  0
  3 44  1  0
  4 45  1  0
  5 46  1  0
  7 47  1  0
  7 48  1  0
  8 49  1  0
  8 50  1  0
 11 51  1  0
 11 52  1  0
 13 53  1  0
 13 54  1  0
 14 55  1  0
 14 56  1  0
 15 57  1  0
 15 58  1  0
 18 59  1  0
 19 60  1  0
 19 61  1  0
 20 62  1  0
 20 63  1  0
 22 64  1  0
 22 65  1  0
 24 66  1  0
 24 67  1  0
 25 68  1  0
 25 69  1  0
 27 70  1  0
 27 71  1  0
 28 72  1  0
 28 73  1  0
 29 74  1  0
 29 75  1  0
 31 76  1  0
 31 77  1  0
 32 78  1  0
 32 79  1  0
 35 80  1  0
 35 81  1  0
 36 82  1  0
 36 83  1  0
 38 84  1  0
 38 85  1  0
 38 86  1  0
 39 87  1  0
 39 88  1  0
 40 89  1  0
 40 90  1  0
 41 91  1  0
 41 92  1  0
 42 93  1  0
 42 94  1  0
 42 95  1  0
M  END

