46509050
     RDKit          3D

 18 18  0  0  1  0  0  0  0  0999 V2000
   -2.6467    0.9601    0.4537 C   0  0  0  0  0  0  0  0  0  0  0  0
   -3.1139    1.9962    0.6507 N   0  0  0  0  0  0  0  0  0  0  0  0
   -2.0620   -0.3489    0.1884 C   0  0  1  0  0  0  0  0  0  0  0  0
   -2.4789   -0.7292   -1.0881 O   0  0  0  0  0  0  0  0  0  0  0  0
   -0.5851   -0.1844    0.1474 C   0  0  0  0  0  0  0  0  0  0  0  0
    0.2174   -0.6926    1.1333 C   0  0  0  0  0  0  0  0  0  0  0  0
   -0.0469    0.4942   -0.9110 C   0  0  0  0  0  0  0  0  0  0  0  0
    1.5807   -0.5261    1.0708 C   0  0  0  0  0  0  0  0  0  0  0  0
    1.3133    0.6584   -0.9701 C   0  0  0  0  0  0  0  0  0  0  0  0
    2.1421    0.1539    0.0137 C   0  0  0  0  0  0  0  0  0  0  0  0
    3.5230    0.3035   -0.0173 O   0  0  0  0  0  0  0  0  0  0  0  0
   -2.3198   -1.1092    0.9349 H   0  0  0  0  0  0  0  0  0  0  0  0
   -2.5526   -1.7139   -1.1380 H   0  0  0  0  0  0  0  0  0  0  0  0
   -0.2733   -1.2211    1.9461 H   0  0  0  0  0  0  0  0  0  0  0  0
   -0.6423    0.9165   -1.7187 H   0  0  0  0  0  0  0  0  0  0  0  0
    2.2065   -0.9433    1.8747 H   0  0  0  0  0  0  0  0  0  0  0  0
    1.8111    1.1864   -1.7808 H   0  0  0  0  0  0  0  0  0  0  0  0
    3.9274    0.7996   -0.7895 H   0  0  0  0  0  0  0  0  0  0  0  0
  1  2  3  0
  1  3  1  0
  3  4  1  0
  3  5  1  0
  5  6  2  0
  5  7  1  0
  6  8  1  0
  7  9  2  0
  8 10  2  0
  9 10  1  0
 10 11  1  0
  3 12  1  1
  4 13  1  0
  6 14  1  0
  7 15  1  0
  8 16  1  0
  9 17  1  0
 11 18  1  0
M  END

