46506387
     RDKit          3D

 57 61  0  0  0  0  0  0  0  0999 V2000
    1.5468   -1.4724   -2.3557 C   0  0  0  0  0  0  0  0  0  0  0  0
    0.8901   -1.3396   -1.0967 N   0  0  0  0  0  0  0  0  0  0  0  0
    1.0849   -2.0558    0.0137 C   0  0  0  0  0  0  0  0  0  0  0  0
    2.0583   -3.1591    0.1640 C   0  0  0  0  0  0  0  0  0  0  0  0
    3.2805   -2.9634   -0.5890 N   0  0  0  0  0  0  0  0  0  0  0  0
    4.1294   -1.8459   -0.3520 C   0  0  0  0  0  0  0  0  0  0  0  0
    5.2701   -1.7121   -1.0982 C   0  0  0  0  0  0  0  0  0  0  0  0
    6.1428   -0.6696   -0.9368 C   0  0  0  0  0  0  0  0  0  0  0  0
    5.8912    0.3152    0.0178 C   0  0  0  0  0  0  0  0  0  0  0  0
    4.7397    0.1569    0.7528 C   0  0  0  0  0  0  0  0  0  0  0  0
    3.8574   -0.9057    0.5829 C   0  0  0  0  0  0  0  0  0  0  0  0
    6.8162    1.4285    0.1952 C   0  0  0  0  0  0  0  0  0  0  0  0
    7.9774    1.4832   -0.6289 N   0  0  0  0  0  0  0  0  0  0  0  0
    6.6226    2.3413    1.0510 N   0  0  0  0  0  0  0  0  0  0  0  0
    0.2390   -1.5812    0.9520 N   0  0  0  0  0  0  0  0  0  0  0  0
   -0.4995   -0.5543    0.4331 C   0  0  0  0  0  0  0  0  0  0  0  0
   -0.0807   -0.4058   -0.8694 C   0  0  0  0  0  0  0  0  0  0  0  0
   -0.6556    0.5669   -1.6517 C   0  0  0  0  0  0  0  0  0  0  0  0
   -1.6347    1.3573   -1.0922 C   0  0  0  0  0  0  0  0  0  0  0  0
   -2.0709    1.2248    0.2148 C   0  0  0  0  0  0  0  0  0  0  0  0
   -3.1461    2.1250    0.7530 C   0  0  0  0  0  0  0  0  0  0  0  0
   -4.4551    1.5503    0.5914 N   0  0  0  0  0  0  0  0  0  0  0  0
   -5.2197    1.7268   -0.4972 C   0  0  0  0  0  0  0  0  0  0  0  0
   -4.9303    2.5183   -1.7435 C   0  0  0  0  0  0  0  0  0  0  0  0
   -6.3561    1.0362   -0.2604 N   0  0  0  0  0  0  0  0  0  0  0  0
   -6.3008    0.4493    0.9368 C   0  0  0  0  0  0  0  0  0  0  0  0
   -5.0906    0.7633    1.5058 C   0  0  0  0  0  0  0  0  0  0  0  0
   -4.7303    0.3003    2.7689 C   0  0  0  0  0  0  0  0  0  0  0  0
   -5.6195   -0.4983    3.4648 C   0  0  0  0  0  0  0  0  0  0  0  0
   -6.8424   -0.8351    2.9267 C   0  0  0  0  0  0  0  0  0  0  0  0
   -7.1618   -0.3563    1.6738 C   0  0  0  0  0  0  0  0  0  0  0  0
   -1.4814    0.2440    0.9816 C   0  0  0  0  0  0  0  0  0  0  0  0
    2.4518   -0.8393   -2.4778 H   0  0  0  0  0  0  0  0  0  0  0  0
    0.8746   -1.2080   -3.2186 H   0  0  0  0  0  0  0  0  0  0  0  0
    1.8671   -2.5185   -2.5926 H   0  0  0  0  0  0  0  0  0  0  0  0
    1.5867   -4.1303   -0.0667 H   0  0  0  0  0  0  0  0  0  0  0  0
    2.3570   -3.1614    1.2430 H   0  0  0  0  0  0  0  0  0  0  0  0
    3.5178   -3.6761   -1.3130 H   0  0  0  0  0  0  0  0  0  0  0  0
    5.4755   -2.4864   -1.8545 H   0  0  0  0  0  0  0  0  0  0  0  0
    7.0365   -0.5769   -1.5307 H   0  0  0  0  0  0  0  0  0  0  0  0
    4.5025    0.9063    1.5134 H   0  0  0  0  0  0  0  0  0  0  0  0
    2.9646   -0.9828    1.1885 H   0  0  0  0  0  0  0  0  0  0  0  0
    8.2879    2.3653   -1.0782 H   0  0  0  0  0  0  0  0  0  0  0  0
    8.5248    0.5978   -0.7769 H   0  0  0  0  0  0  0  0  0  0  0  0
    5.8155    2.3818    1.6847 H   0  0  0  0  0  0  0  0  0  0  0  0
   -0.3195    0.6730   -2.6680 H   0  0  0  0  0  0  0  0  0  0  0  0
   -2.0908    2.1358   -1.7121 H   0  0  0  0  0  0  0  0  0  0  0  0
   -3.0673    3.0981    0.2180 H   0  0  0  0  0  0  0  0  0  0  0  0
   -2.9582    2.2411    1.8279 H   0  0  0  0  0  0  0  0  0  0  0  0
   -4.2231    3.3329   -1.5559 H   0  0  0  0  0  0  0  0  0  0  0  0
   -4.4815    1.8633   -2.5303 H   0  0  0  0  0  0  0  0  0  0  0  0
   -5.8872    2.9774   -2.0792 H   0  0  0  0  0  0  0  0  0  0  0  0
   -3.7701    0.5819    3.1713 H   0  0  0  0  0  0  0  0  0  0  0  0
   -5.3079   -0.8465    4.4541 H   0  0  0  0  0  0  0  0  0  0  0  0
   -7.5368   -1.4585    3.4691 H   0  0  0  0  0  0  0  0  0  0  0  0
   -8.1153   -0.5945    1.2067 H   0  0  0  0  0  0  0  0  0  0  0  0
   -1.7753    0.0916    2.0091 H   0  0  0  0  0  0  0  0  0  0  0  0
  1  2  1  0
  2  3  1  0
  3  4  1  0
  4  5  1  0
  5  6  1  0
  6  7  2  0
  7  8  1  0
  8  9  2  0
  9 10  1  0
 10 11  2  0
  6 11  1  0
  9 12  1  0
 12 13  1  0
 12 14  2  3
  3 15  2  0
 15 16  1  0
 16 17  2  0
  2 17  1  0
 17 18  1  0
 18 19  2  0
 19 20  1  0
 20 21  1  0
 21 22  1  0
 22 23  1  0
 23 24  1  0
 23 25  2  0
 25 26  1  0
 26 27  2  0
 22 27  1  0
 27 28  1  0
 28 29  2  0
 29 30  1  0
 30 31  2  0
 26 31  1  0
 20 32  2  0
 16 32  1  0
  1 33  1  0
  1 34  1  0
  1 35  1  0
  4 36  1  0
  4 37  1  0
  5 38  1  0
  7 39  1  0
  8 40  1  0
 10 41  1  0
 11 42  1  0
 13 43  1  0
 13 44  1  0
 14 45  1  0
 18 46  1  0
 19 47  1  0
 21 48  1  0
 21 49  1  0
 24 50  1  0
 24 51  1  0
 24 52  1  0
 28 53  1  0
 29 54  1  0
 30 55  1  0
 31 56  1  0
 32 57  1  0
M  END

