46506166
     RDKit          3D

 16 15  0  0  1  0  0  0  0  0999 V2000
   -1.3078   -1.0855    0.3219 C   0  0  0  0  0  0  0  0  0  0  0  0
   -0.8566    0.2116   -0.2904 C   0  0  1  0  0  0  0  0  0  0  0  0
   -1.6418    1.2513    0.2125 O   0  0  0  0  0  0  0  0  0  0  0  0
    0.5804    0.5336    0.0283 C   0  0  2  0  0  0  0  0  0  0  0  0
    1.5609   -0.4231   -0.5549 C   0  0  0  0  0  0  0  0  0  0  0  0
    0.6924    0.6290    1.4134 O   0  0  0  0  0  0  0  0  0  0  0  0
   -1.6013   -0.9985    1.3825 H   0  0  0  0  0  0  0  0  0  0  0  0
   -2.1884   -1.4317   -0.2860 H   0  0  0  0  0  0  0  0  0  0  0  0
   -0.4717   -1.8127    0.2674 H   0  0  0  0  0  0  0  0  0  0  0  0
   -0.9547    0.1609   -1.3866 H   0  0  0  0  0  0  0  0  0  0  0  0
   -1.5642    2.0648   -0.3498 H   0  0  0  0  0  0  0  0  0  0  0  0
    0.7623    1.5708   -0.3753 H   0  0  0  0  0  0  0  0  0  0  0  0
    1.2223   -0.9012   -1.4962 H   0  0  0  0  0  0  0  0  0  0  0  0
    2.5060    0.1373   -0.7907 H   0  0  0  0  0  0  0  0  0  0  0  0
    1.8536   -1.1637    0.2201 H   0  0  0  0  0  0  0  0  0  0  0  0
    1.4086    1.2571    1.6837 H   0  0  0  0  0  0  0  0  0  0  0  0
  1  2  1  0
  2  3  1  0
  2  4  1  0
  4  5  1  0
  4  6  1  0
  1  7  1  0
  1  8  1  0
  1  9  1  0
  2 10  1  6
  3 11  1  0
  4 12  1  6
  5 13  1  0
  5 14  1  0
  5 15  1  0
  6 16  1  0
M  END

