46506575
     RDKit          3D

 60 64  0  0  0  0  0  0  0  0999 V2000
   -1.0907    0.2872    3.1824 O   0  0  0  0  0  0  0  0  0  0  0  0
   -3.1957    0.0627    0.3875 N   0  0  0  0  0  0  0  0  0  0  0  0
   -1.5218   -1.0943    1.2891 N   0  0  0  0  0  0  0  0  0  0  0  0
    4.3701    2.8389   -0.9554 N   0  0  0  0  0  0  0  0  0  0  0  0
    2.8450    1.4972   -0.2758 N   0  0  0  0  0  0  0  0  0  0  0  0
    3.3049    3.5857   -0.6379 N   0  0  0  0  0  0  0  0  0  0  0  0
    2.3903    2.7359   -0.2261 N   0  0  0  0  0  0  0  0  0  0  0  0
   -2.8418    0.8049    1.5489 C   0  0  0  0  0  0  0  0  0  0  0  0
   -2.4521    2.2313    1.2501 C   0  0  0  0  0  0  0  0  0  0  0  0
   -3.9455    0.8517    2.5808 C   0  0  0  0  0  0  0  0  0  0  0  0
   -3.1928    3.0430    2.2787 C   0  0  0  0  0  0  0  0  0  0  0  0
   -3.6055    2.0812    3.3720 C   0  0  0  0  0  0  0  0  0  0  0  0
   -1.7372    0.0250    2.1312 C   0  0  0  0  0  0  0  0  0  0  0  0
   -2.4685   -0.9886    0.2388 C   0  0  0  0  0  0  0  0  0  0  0  0
   -2.6426   -1.9343   -0.8804 C   0  0  0  0  0  0  0  0  0  0  0  0
   -0.5171   -2.1577    1.4922 C   0  0  0  0  0  0  0  0  0  0  0  0
   -3.7275   -1.5479   -1.8447 C   0  0  0  0  0  0  0  0  0  0  0  0
    0.7938   -1.8175    0.9439 C   0  0  0  0  0  0  0  0  0  0  0  0
   -3.5146   -0.2360   -2.5285 C   0  0  0  0  0  0  0  0  0  0  0  0
    1.6999   -1.1095    1.7172 C   0  0  0  0  0  0  0  0  0  0  0  0
    1.1480   -2.1885   -0.3285 C   0  0  0  0  0  0  0  0  0  0  0  0
   -4.6542    0.0859   -3.4895 C   0  0  0  0  0  0  0  0  0  0  0  0
    2.9393   -0.7874    1.2038 C   0  0  0  0  0  0  0  0  0  0  0  0
    2.4039   -1.8559   -0.8344 C   0  0  0  0  0  0  0  0  0  0  0  0
    3.3240   -1.1459   -0.0714 C   0  0  0  0  0  0  0  0  0  0  0  0
    4.6137   -0.8396   -0.6616 C   0  0  0  0  0  0  0  0  0  0  0  0
    4.9893    0.4449   -0.9689 C   0  0  0  0  0  0  0  0  0  0  0  0
    5.5162   -1.8870   -0.9121 C   0  0  0  0  0  0  0  0  0  0  0  0
    6.2597    0.6838   -1.5223 C   0  0  0  0  0  0  0  0  0  0  0  0
    6.7553   -1.6388   -1.4544 C   0  0  0  0  0  0  0  0  0  0  0  0
    4.0891    1.5493   -0.7328 C   0  0  0  0  0  0  0  0  0  0  0  0
    7.1226   -0.3491   -1.7580 C   0  0  0  0  0  0  0  0  0  0  0  0
    3.2857    4.6334   -0.7280 H   0  0  0  0  0  0  0  0  0  0  0  0
   -2.7794    2.5148    0.2285 H   0  0  0  0  0  0  0  0  0  0  0  0
   -1.3597    2.3779    1.2759 H   0  0  0  0  0  0  0  0  0  0  0  0
   -3.8914   -0.0906    3.1883 H   0  0  0  0  0  0  0  0  0  0  0  0
   -4.9551    0.9126    2.1403 H   0  0  0  0  0  0  0  0  0  0  0  0
   -4.1122    3.4541    1.8485 H   0  0  0  0  0  0  0  0  0  0  0  0
   -2.5515    3.8085    2.7600 H   0  0  0  0  0  0  0  0  0  0  0  0
   -4.5011    2.4684    3.9031 H   0  0  0  0  0  0  0  0  0  0  0  0
   -2.7456    1.9274    4.0284 H   0  0  0  0  0  0  0  0  0  0  0  0
   -2.9235   -2.9286   -0.4658 H   0  0  0  0  0  0  0  0  0  0  0  0
   -1.7078   -2.0421   -1.4838 H   0  0  0  0  0  0  0  0  0  0  0  0
   -0.4366   -2.4226    2.5755 H   0  0  0  0  0  0  0  0  0  0  0  0
   -0.9766   -3.0582    1.0023 H   0  0  0  0  0  0  0  0  0  0  0  0
   -4.6845   -1.5025   -1.2523 H   0  0  0  0  0  0  0  0  0  0  0  0
   -3.8341   -2.3921   -2.5592 H   0  0  0  0  0  0  0  0  0  0  0  0
   -3.4100    0.6271   -1.8777 H   0  0  0  0  0  0  0  0  0  0  0  0
   -2.5672   -0.2909   -3.1369 H   0  0  0  0  0  0  0  0  0  0  0  0
    1.4921   -0.7838    2.7269 H   0  0  0  0  0  0  0  0  0  0  0  0
    0.4880   -2.7455   -0.9778 H   0  0  0  0  0  0  0  0  0  0  0  0
   -4.9188    1.1558   -3.4846 H   0  0  0  0  0  0  0  0  0  0  0  0
   -4.3859   -0.1923   -4.5414 H   0  0  0  0  0  0  0  0  0  0  0  0
   -5.5719   -0.4585   -3.1687 H   0  0  0  0  0  0  0  0  0  0  0  0
    3.6899   -0.2265    1.7828 H   0  0  0  0  0  0  0  0  0  0  0  0
    2.6336   -2.1643   -1.8252 H   0  0  0  0  0  0  0  0  0  0  0  0
    5.1806   -2.8976   -0.6538 H   0  0  0  0  0  0  0  0  0  0  0  0
    6.5192    1.7166   -1.7519 H   0  0  0  0  0  0  0  0  0  0  0  0
    7.4477   -2.4584   -1.6443 H   0  0  0  0  0  0  0  0  0  0  0  0
    8.1188   -0.1722   -2.1906 H   0  0  0  0  0  0  0  0  0  0  0  0
  1 13  2  0
  2  8  1  0
  2 14  2  0
  3 13  1  0
  3 14  1  0
  3 16  1  0
  4  6  1  0
  4 31  2  0
  5  7  2  0
  5 31  1  0
  6  7  1  0
  8  9  1  0
  8 10  1  0
  8 13  1  0
  9 11  1  0
 10 12  1  0
 11 12  1  0
 14 15  1  0
 15 17  1  0
 16 18  1  0
 17 19  1  0
 18 20  2  0
 18 21  1  0
 19 22  1  0
 20 23  1  0
 21 24  2  0
 23 25  2  0
 24 25  1  0
 25 26  1  0
 26 27  1  0
 26 28  2  0
 27 29  2  0
 27 31  1  0
 28 30  1  0
 29 32  1  0
 30 32  2  0
  6 33  1  0
  9 34  1  0
  9 35  1  0
 10 36  1  0
 10 37  1  0
 11 38  1  0
 11 39  1  0
 12 40  1  0
 12 41  1  0
 15 42  1  0
 15 43  1  0
 16 44  1  0
 16 45  1  0
 17 46  1  0
 17 47  1  0
 19 48  1  0
 19 49  1  0
 20 50  1  0
 21 51  1  0
 22 52  1  0
 22 53  1  0
 22 54  1  0
 23 55  1  0
 24 56  1  0
 28 57  1  0
 29 58  1  0
 30 59  1  0
 32 60  1  0
M  END

