46505199
     RDKit          3D

 54 56  0  0  0  0  0  0  0  0999 V2000
   -2.1593    0.3916   -0.2236 C   0  0  0  0  0  0  0  0  0  0  0  0
    0.7184    0.2234    0.3842 N   0  0  0  0  0  0  0  0  0  0  0  0
   -1.5098   -0.2303    1.0141 C   0  0  0  0  0  0  0  0  0  0  0  0
   -1.0694    1.0343   -1.0177 C   0  0  0  0  0  0  0  0  0  0  0  0
   -0.1484   -0.8514    0.6699 C   0  0  0  0  0  0  0  0  0  0  0  0
    0.1502    1.3908   -0.1575 C   0  0  0  0  0  0  0  0  0  0  0  0
    2.0901    0.1105    0.5802 C   0  0  0  0  0  0  0  0  0  0  0  0
    7.0854   -0.4798    0.1841 C   0  0  0  0  0  0  0  0  0  0  0  0
    4.3531   -0.0700   -0.3851 C   0  0  0  0  0  0  0  0  0  0  0  0
    8.4532   -0.6423    0.4692 N   0  0  0  0  0  0  0  0  0  0  0  0
    2.9219    0.0505   -0.6810 C   0  0  0  0  0  0  0  0  0  0  0  0
    6.2231   -1.5535    0.0132 C   0  0  0  0  0  0  0  0  0  0  0  0
    6.5406    0.7916    0.0619 C   0  0  0  0  0  0  0  0  0  0  0  0
    4.8870   -1.3562   -0.2651 C   0  0  0  0  0  0  0  0  0  0  0  0
    5.2059    0.9898   -0.2161 C   0  0  0  0  0  0  0  0  0  0  0  0
   -2.5246   -0.7425   -2.2567 O   0  0  0  0  0  0  0  0  0  0  0  0
   -2.7942   -0.6957   -1.0147 C   0  0  0  0  0  0  0  0  0  0  0  0
   -4.3221    0.8067    0.8761 C   0  0  0  0  0  0  0  0  0  0  0  0
   -3.1939    1.3127    0.2772 C   0  0  0  0  0  0  0  0  0  0  0  0
   -5.3145    1.6732    1.3478 C   0  0  0  0  0  0  0  0  0  0  0  0
   -5.1397    3.0348    1.2019 C   0  0  0  0  0  0  0  0  0  0  0  0
   -3.0245    2.6735    0.1346 C   0  0  0  0  0  0  0  0  0  0  0  0
   -3.9980    3.5132    0.5979 C   0  0  0  0  0  0  0  0  0  0  0  0
   -3.6339   -1.6251   -0.4696 O   0  0  0  0  0  0  0  0  0  0  0  0
   -4.1883   -2.6267   -1.3067 C   0  0  0  0  0  0  0  0  0  0  0  0
   -5.0595   -3.4955   -0.4175 C   0  0  0  0  0  0  0  0  0  0  0  0
   -2.1722   -0.9321    1.5231 H   0  0  0  0  0  0  0  0  0  0  0  0
   -1.2937    0.6016    1.7134 H   0  0  0  0  0  0  0  0  0  0  0  0
   -0.6715    0.2056   -1.6882 H   0  0  0  0  0  0  0  0  0  0  0  0
   -1.3592    1.8206   -1.7071 H   0  0  0  0  0  0  0  0  0  0  0  0
   -0.2502   -1.6185   -0.1311 H   0  0  0  0  0  0  0  0  0  0  0  0
    0.1654   -1.3530    1.6288 H   0  0  0  0  0  0  0  0  0  0  0  0
   -0.2307    2.0095    0.6810 H   0  0  0  0  0  0  0  0  0  0  0  0
    0.8166    2.0245   -0.7542 H   0  0  0  0  0  0  0  0  0  0  0  0
    2.4565    0.9610    1.2270 H   0  0  0  0  0  0  0  0  0  0  0  0
    2.3022   -0.8317    1.1378 H   0  0  0  0  0  0  0  0  0  0  0  0
    8.7804   -1.3078    1.1902 H   0  0  0  0  0  0  0  0  0  0  0  0
    9.1552   -0.0865   -0.0506 H   0  0  0  0  0  0  0  0  0  0  0  0
    2.7704    0.9779   -1.2940 H   0  0  0  0  0  0  0  0  0  0  0  0
    2.6000   -0.8449   -1.2489 H   0  0  0  0  0  0  0  0  0  0  0  0
    6.6547   -2.5490    0.1098 H   0  0  0  0  0  0  0  0  0  0  0  0
    7.2319    1.6276    0.1989 H   0  0  0  0  0  0  0  0  0  0  0  0
    4.2686   -2.2253   -0.3869 H   0  0  0  0  0  0  0  0  0  0  0  0
    4.8046    1.9849   -0.3065 H   0  0  0  0  0  0  0  0  0  0  0  0
   -4.5351   -0.2388    1.0381 H   0  0  0  0  0  0  0  0  0  0  0  0
   -6.2089    1.3172    1.8196 H   0  0  0  0  0  0  0  0  0  0  0  0
   -5.8950    3.7340    1.5592 H   0  0  0  0  0  0  0  0  0  0  0  0
   -2.1237    3.0318   -0.3381 H   0  0  0  0  0  0  0  0  0  0  0  0
   -3.8388    4.5763    0.4728 H   0  0  0  0  0  0  0  0  0  0  0  0
   -4.8267   -2.2130   -2.0981 H   0  0  0  0  0  0  0  0  0  0  0  0
   -3.3412   -3.2160   -1.7180 H   0  0  0  0  0  0  0  0  0  0  0  0
   -6.0564   -3.0303   -0.3839 H   0  0  0  0  0  0  0  0  0  0  0  0
   -5.1827   -4.5121   -0.8320 H   0  0  0  0  0  0  0  0  0  0  0  0
   -4.5695   -3.5408    0.5918 H   0  0  0  0  0  0  0  0  0  0  0  0
  1  3  1  0
  1  4  1  0
  2  6  1  0
  2  7  1  0
  2  5  1  0
  3  5  1  0
  4  6  1  0
  7 11  1  0
  8 13  2  0
  8 10  1  0
  8 12  1  0
  9 11  1  0
  9 14  1  0
  9 15  2  0
 12 14  2  0
 13 15  1  0
 16 17  2  0
  1 17  1  0
  1 19  1  0
 18 20  2  0
 18 19  1  0
 20 21  1  0
 19 22  2  0
 21 23  2  0
 22 23  1  0
 17 24  1  0
 24 25  1  0
 25 26  1  0
  3 27  1  0
  3 28  1  0
  4 29  1  0
  4 30  1  0
  5 31  1  0
  5 32  1  0
  6 33  1  0
  6 34  1  0
  7 35  1  0
  7 36  1  0
 10 37  1  0
 10 38  1  0
 11 39  1  0
 11 40  1  0
 12 41  1  0
 13 42  1  0
 14 43  1  0
 15 44  1  0
 18 45  1  0
 20 46  1  0
 21 47  1  0
 22 48  1  0
 23 49  1  0
 25 50  1  0
 25 51  1  0
 26 52  1  0
 26 53  1  0
 26 54  1  0
M  END

