46505927
     RDKit          3D

 14 13  0  0  0  0  0  0  0  0999 V2000
   -1.9154    0.2183   -0.1032 C   0  0  0  0  0  0  0  0  0  0  0  0
   -0.5542   -0.0576    0.4529 C   0  0  0  0  0  0  0  0  0  0  0  0
    0.4874   -0.2388   -0.6287 C   0  0  0  0  0  0  0  0  0  0  0  0
    1.7791   -0.5045    0.0368 C   0  0  0  0  0  0  0  0  0  0  0  0
    2.7186    0.4981    0.1613 O   0  0  0  0  0  0  0  0  0  0  0  0
    1.9955   -1.6518    0.4794 O   0  0  0  0  0  0  0  0  0  0  0  0
   -1.8978    0.7797   -1.0510 H   0  0  0  0  0  0  0  0  0  0  0  0
   -2.4760    0.8533    0.6386 H   0  0  0  0  0  0  0  0  0  0  0  0
   -2.4841   -0.7127   -0.1944 H   0  0  0  0  0  0  0  0  0  0  0  0
   -0.5655   -0.9179    1.1374 H   0  0  0  0  0  0  0  0  0  0  0  0
   -0.2446    0.8492    1.0299 H   0  0  0  0  0  0  0  0  0  0  0  0
    0.5108    0.6475   -1.2806 H   0  0  0  0  0  0  0  0  0  0  0  0
    0.2674   -1.1417   -1.2577 H   0  0  0  0  0  0  0  0  0  0  0  0
    2.3788    1.3789    0.5794 H   0  0  0  0  0  0  0  0  0  0  0  0
  1  2  1  0
  2  3  1  0
  3  4  1  0
  4  5  1  0
  4  6  2  0
  1  7  1  0
  1  8  1  0
  1  9  1  0
  2 10  1  0
  2 11  1  0
  3 12  1  0
  3 13  1  0
  5 14  1  0
M  END

