46507442
     RDKit          3D

 19 19  0  0  1  0  0  0  0  0999 V2000
    2.2624    0.1482    0.7377 C   0  0  0  0  0  0  0  0  0  0  0  0
    1.5114   -0.3938   -0.4820 C   0  0  1  0  0  0  0  0  0  0  0  0
    1.7985   -1.7275   -0.6960 O   0  0  0  0  0  0  0  0  0  0  0  0
    0.0947   -0.0967   -0.2833 C   0  0  0  0  0  0  0  0  0  0  0  0
   -0.7288   -0.8412    0.5185 C   0  0  0  0  0  0  0  0  0  0  0  0
   -2.0665   -0.5064    0.6683 C   0  0  0  0  0  0  0  0  0  0  0  0
   -2.5962    0.5767    0.0182 C   0  0  0  0  0  0  0  0  0  0  0  0
   -1.7783    1.3314   -0.7896 C   0  0  0  0  0  0  0  0  0  0  0  0
   -0.4426    0.9920   -0.9354 C   0  0  0  0  0  0  0  0  0  0  0  0
    1.5694    0.1547    1.6019 H   0  0  0  0  0  0  0  0  0  0  0  0
    2.6543    1.1612    0.4887 H   0  0  0  0  0  0  0  0  0  0  0  0
    3.1411   -0.4806    0.9623 H   0  0  0  0  0  0  0  0  0  0  0  0
    1.8619    0.1438   -1.3854 H   0  0  0  0  0  0  0  0  0  0  0  0
    1.4629   -2.3334   -0.0038 H   0  0  0  0  0  0  0  0  0  0  0  0
   -0.3725   -1.7019    1.0544 H   0  0  0  0  0  0  0  0  0  0  0  0
   -2.7036   -1.0980    1.3002 H   0  0  0  0  0  0  0  0  0  0  0  0
   -3.6338    0.8643    0.1135 H   0  0  0  0  0  0  0  0  0  0  0  0
   -2.1897    2.1843   -1.3032 H   0  0  0  0  0  0  0  0  0  0  0  0
    0.1556    1.6229   -1.5850 H   0  0  0  0  0  0  0  0  0  0  0  0
  1  2  1  0
  2  3  1  0
  2  4  1  0
  4  5  2  0
  5  6  1  0
  6  7  2  0
  7  8  1  0
  8  9  2  0
  4  9  1  0
  1 10  1  0
  1 11  1  0
  1 12  1  0
  2 13  1  6
  3 14  1  0
  5 15  1  0
  6 16  1  0
  7 17  1  0
  8 18  1  0
  9 19  1  0
M  END

