46509149
     RDKit          3D

 56 58  0  0  1  0  0  0  0  0999 V2000
    1.9303   -2.1195    0.9318 O   0  0  0  0  0  0  0  0  0  0  0  0
   -1.5076    0.3281   -0.5525 N   0  0  0  0  0  0  0  0  0  0  0  0
    2.6208   -0.0371    0.1930 N   0  0  0  0  0  0  0  0  0  0  0  0
    1.2878    0.3602   -0.1502 C   0  0  0  0  0  0  0  0  0  0  0  0
    0.6893   -0.5350   -1.2236 C   0  0  0  0  0  0  0  0  0  0  0  0
    0.3425    0.3083    1.0296 C   0  0  0  0  0  0  0  0  0  0  0  0
   -0.7517   -0.8651   -0.9266 C   0  0  0  0  0  0  0  0  0  0  0  0
   -0.9496    0.9867    0.5867 C   0  0  0  0  0  0  0  0  0  0  0  0
    0.7937    0.0544   -2.5936 C   0  0  0  0  0  0  0  0  0  0  0  0
   -2.8694   -0.0921   -0.3662 C   0  0  0  0  0  0  0  0  0  0  0  0
   -3.8290    0.9878    0.0071 C   0  0  0  0  0  0  0  0  0  0  0  0
    3.6790    0.8683   -0.0223 C   0  0  0  0  0  0  0  0  0  0  0  0
    2.8664   -1.3132    0.7349 C   0  0  0  0  0  0  0  0  0  0  0  0
    4.2518   -1.7669    1.1007 C   0  0  0  0  0  0  0  0  0  0  0  0
   -5.1687    0.3543    0.1496 C   0  0  0  0  0  0  0  0  0  0  0  0
    4.0169    1.7553    0.9703 C   0  0  0  0  0  0  0  0  0  0  0  0
    4.3969    0.9047   -1.1929 C   0  0  0  0  0  0  0  0  0  0  0  0
    4.2306   -3.1687    1.6577 C   0  0  0  0  0  0  0  0  0  0  0  0
    5.0584    2.6729    0.8063 C   0  0  0  0  0  0  0  0  0  0  0  0
    5.4350    1.8069   -1.3786 C   0  0  0  0  0  0  0  0  0  0  0  0
   -6.0120    0.2620   -0.9356 C   0  0  0  0  0  0  0  0  0  0  0  0
   -5.6137   -0.1564    1.3464 C   0  0  0  0  0  0  0  0  0  0  0  0
    5.7620    2.6976   -0.3606 C   0  0  0  0  0  0  0  0  0  0  0  0
   -7.2638   -0.3243   -0.8250 C   0  0  0  0  0  0  0  0  0  0  0  0
   -6.8762   -0.7485    1.4611 C   0  0  0  0  0  0  0  0  0  0  0  0
   -7.7163   -0.8381    0.3713 C   0  0  0  0  0  0  0  0  0  0  0  0
    1.2537    1.3868   -0.5597 H   0  0  0  0  0  0  0  0  0  0  0  0
    1.2608   -1.4793   -1.2069 H   0  0  0  0  0  0  0  0  0  0  0  0
    0.1179   -0.7022    1.3761 H   0  0  0  0  0  0  0  0  0  0  0  0
    0.8023    0.8769    1.8612 H   0  0  0  0  0  0  0  0  0  0  0  0
   -1.2067   -1.2375   -1.8691 H   0  0  0  0  0  0  0  0  0  0  0  0
   -0.8962   -1.6059   -0.1432 H   0  0  0  0  0  0  0  0  0  0  0  0
   -1.6345    1.1106    1.4438 H   0  0  0  0  0  0  0  0  0  0  0  0
   -0.6386    2.0371    0.3112 H   0  0  0  0  0  0  0  0  0  0  0  0
    1.4909    0.9184   -2.5776 H   0  0  0  0  0  0  0  0  0  0  0  0
   -0.1814    0.4039   -2.9729 H   0  0  0  0  0  0  0  0  0  0  0  0
    1.1748   -0.6883   -3.3464 H   0  0  0  0  0  0  0  0  0  0  0  0
   -2.9593   -0.9308    0.3593 H   0  0  0  0  0  0  0  0  0  0  0  0
   -3.2102   -0.4944   -1.3656 H   0  0  0  0  0  0  0  0  0  0  0  0
   -3.5913    1.3968    1.0124 H   0  0  0  0  0  0  0  0  0  0  0  0
   -3.8467    1.8156   -0.7358 H   0  0  0  0  0  0  0  0  0  0  0  0
    4.8774   -1.7902    0.1780 H   0  0  0  0  0  0  0  0  0  0  0  0
    4.6672   -1.0886    1.8642 H   0  0  0  0  0  0  0  0  0  0  0  0
    3.4933    1.7877    1.9289 H   0  0  0  0  0  0  0  0  0  0  0  0
    4.1781    0.2310   -2.0120 H   0  0  0  0  0  0  0  0  0  0  0  0
    3.4546   -3.8080    1.1479 H   0  0  0  0  0  0  0  0  0  0  0  0
    4.0126   -3.1978    2.7442 H   0  0  0  0  0  0  0  0  0  0  0  0
    5.1999   -3.6719    1.4491 H   0  0  0  0  0  0  0  0  0  0  0  0
    5.2994    3.3570    1.6054 H   0  0  0  0  0  0  0  0  0  0  0  0
    6.0120    1.8533   -2.2889 H   0  0  0  0  0  0  0  0  0  0  0  0
   -5.6887    0.6604   -1.9102 H   0  0  0  0  0  0  0  0  0  0  0  0
   -4.9519   -0.0851    2.2024 H   0  0  0  0  0  0  0  0  0  0  0  0
    6.5707    3.4101   -0.4879 H   0  0  0  0  0  0  0  0  0  0  0  0
   -7.9323   -0.3978   -1.6837 H   0  0  0  0  0  0  0  0  0  0  0  0
   -7.2268   -1.1484    2.3942 H   0  0  0  0  0  0  0  0  0  0  0  0
   -8.7047   -1.3022    0.4626 H   0  0  0  0  0  0  0  0  0  0  0  0
  1 13  2  0
  2  7  1  0
  2  8  1  0
  2 10  1  0
  3  4  1  0
  3 12  1  0
  3 13  1  0
  4  5  1  0
  4  6  1  0
  5  7  1  0
  5  9  1  0
  6  8  1  0
 10 11  1  0
 11 15  1  0
 12 16  2  0
 12 17  1  0
 13 14  1  0
 14 18  1  0
 15 21  2  0
 15 22  1  0
 16 19  1  0
 17 20  2  0
 19 23  2  0
 20 23  1  0
 21 24  1  0
 22 25  2  0
 24 26  2  0
 25 26  1  0
  4 27  1  0
  5 28  1  0
  6 29  1  0
  6 30  1  0
  7 31  1  0
  7 32  1  0
  8 33  1  0
  8 34  1  0
  9 35  1  0
  9 36  1  0
  9 37  1  0
 10 38  1  0
 10 39  1  0
 11 40  1  0
 11 41  1  0
 14 42  1  0
 14 43  1  0
 16 44  1  0
 17 45  1  0
 18 46  1  0
 18 47  1  0
 18 48  1  0
 19 49  1  0
 20 50  1  0
 21 51  1  0
 22 52  1  0
 23 53  1  0
 24 54  1  0
 25 55  1  0
 26 56  1  0
M  END

