46504977
     RDKit          3D

 13 12  0  0  0  0  0  0  0  0999 V2000
    1.8003   -0.1202    0.6889 C   0  0  0  0  0  0  0  0  0  0  0  0
    0.8480   -0.2585   -0.4740 C   0  0  0  0  0  0  0  0  0  0  0  0
   -0.4145    0.4594   -0.1464 C   0  0  0  0  0  0  0  0  0  0  0  0
   -0.3196    1.6802    0.1498 O   0  0  0  0  0  0  0  0  0  0  0  0
   -1.7223   -0.1595   -0.1487 C   0  0  0  0  0  0  0  0  0  0  0  0
   -2.8768    0.5280    0.1404 O   0  0  0  0  0  0  0  0  0  0  0  0
   -1.7981   -1.3871   -0.4296 O   0  0  0  0  0  0  0  0  0  0  0  0
    1.6068    0.9032    1.1262 H   0  0  0  0  0  0  0  0  0  0  0  0
    2.8249   -0.1848    0.2782 H   0  0  0  0  0  0  0  0  0  0  0  0
    1.6210   -0.8783    1.4963 H   0  0  0  0  0  0  0  0  0  0  0  0
    0.7015   -1.2831   -0.8180 H   0  0  0  0  0  0  0  0  0  0  0  0
    1.3296    0.3344   -1.3243 H   0  0  0  0  0  0  0  0  0  0  0  0
   -3.6008    0.7214   -0.5388 H   0  0  0  0  0  0  0  0  0  0  0  0
  1  2  1  0
  2  3  1  0
  3  4  2  0
  3  5  1  0
  5  6  1  0
  5  7  2  0
  1  8  1  0
  1  9  1  0
  1 10  1  0
  2 11  1  0
  2 12  1  0
  6 13  1  0
M  END

