46508681
     RDKit          3D

 51 54  0  0  1  0  0  0  0  0999 V2000
    3.6141   -1.8647   -0.5469 C   0  0  0  0  0  0  0  0  0  0  0  0
    4.5187   -0.7038   -0.5164 C   0  0  1  0  0  0  0  0  0  0  0  0
    3.8044    0.5960   -0.5115 C   0  0  0  0  0  0  0  0  0  0  0  0
    2.3702    0.5073   -0.9212 C   0  0  1  0  0  0  0  0  0  0  0  0
    1.6212   -0.5533   -0.1136 C   0  0  2  0  0  0  0  0  0  0  0  0
    2.3156   -1.8237   -0.3697 C   0  0  0  0  0  0  0  0  0  0  0  0
    0.2131   -0.5342   -0.6601 C   0  0  2  0  0  0  0  0  0  0  0  0
   -0.4502    0.7595   -0.2892 C   0  0  1  0  0  0  0  0  0  0  0  0
    0.2621    1.8665   -1.0740 C   0  0  0  0  0  0  0  0  0  0  0  0
    1.7280    1.8703   -0.8061 C   0  0  0  0  0  0  0  0  0  0  0  0
   -1.8878    0.6909   -0.6653 C   0  0  1  0  0  0  0  0  0  0  0  0
   -2.5334   -0.4473    0.0886 C   0  0  2  0  0  0  0  0  0  0  0  0
   -2.0061   -1.7179   -0.4630 C   0  0  0  0  0  0  0  0  0  0  0  0
   -0.5168   -1.7692   -0.2904 C   0  0  0  0  0  0  0  0  0  0  0  0
   -3.9924   -0.2027   -0.2062 C   0  0  2  0  0  0  0  0  0  0  0  0
   -4.0823    1.3020    0.0339 C   0  0  0  0  0  0  0  0  0  0  0  0
   -2.7134    1.8611   -0.1776 C   0  0  0  0  0  0  0  0  0  0  0  0
   -4.8441   -0.8672    0.6515 O   0  0  0  0  0  0  0  0  0  0  0  0
   -2.3377   -0.4063    1.5649 C   0  0  0  0  0  0  0  0  0  0  0  0
    1.6818   -0.2682    1.3610 C   0  0  0  0  0  0  0  0  0  0  0  0
    5.2985   -0.7786    0.6514 O   0  0  0  0  0  0  0  0  0  0  0  0
    4.1347   -2.8356   -0.7414 H   0  0  0  0  0  0  0  0  0  0  0  0
    5.2536   -0.7977   -1.3496 H   0  0  0  0  0  0  0  0  0  0  0  0
    4.3079    1.2471   -1.2858 H   0  0  0  0  0  0  0  0  0  0  0  0
    3.9470    1.1336    0.4491 H   0  0  0  0  0  0  0  0  0  0  0  0
    2.3272    0.1810   -1.9803 H   0  0  0  0  0  0  0  0  0  0  0  0
    1.7616   -2.7457   -0.4145 H   0  0  0  0  0  0  0  0  0  0  0  0
    0.3212   -0.5248   -1.7807 H   0  0  0  0  0  0  0  0  0  0  0  0
   -0.3717    1.0274    0.7635 H   0  0  0  0  0  0  0  0  0  0  0  0
   -0.0069    1.8648   -2.1319 H   0  0  0  0  0  0  0  0  0  0  0  0
   -0.1535    2.8250   -0.6449 H   0  0  0  0  0  0  0  0  0  0  0  0
    1.9683    2.2668    0.1907 H   0  0  0  0  0  0  0  0  0  0  0  0
    2.2141    2.5113   -1.5672 H   0  0  0  0  0  0  0  0  0  0  0  0
   -2.0570    0.4881   -1.7436 H   0  0  0  0  0  0  0  0  0  0  0  0
   -2.3334   -1.9371   -1.4984 H   0  0  0  0  0  0  0  0  0  0  0  0
   -2.4279   -2.5608    0.1590 H   0  0  0  0  0  0  0  0  0  0  0  0
   -0.2456   -2.1150    0.7330 H   0  0  0  0  0  0  0  0  0  0  0  0
   -0.1741   -2.5800   -1.0025 H   0  0  0  0  0  0  0  0  0  0  0  0
   -4.1963   -0.4198   -1.2835 H   0  0  0  0  0  0  0  0  0  0  0  0
   -4.7594    1.7831   -0.7227 H   0  0  0  0  0  0  0  0  0  0  0  0
   -4.3983    1.5297    1.0681 H   0  0  0  0  0  0  0  0  0  0  0  0
   -2.2250    2.2205    0.7684 H   0  0  0  0  0  0  0  0  0  0  0  0
   -2.6828    2.6728   -0.9360 H   0  0  0  0  0  0  0  0  0  0  0  0
   -5.1842   -0.2322    1.3266 H   0  0  0  0  0  0  0  0  0  0  0  0
   -2.1972    0.5994    1.9942 H   0  0  0  0  0  0  0  0  0  0  0  0
   -1.5590   -1.1206    1.9310 H   0  0  0  0  0  0  0  0  0  0  0  0
   -3.2927   -0.7891    2.0326 H   0  0  0  0  0  0  0  0  0  0  0  0
    0.7361   -0.3885    1.8843 H   0  0  0  0  0  0  0  0  0  0  0  0
    2.4169   -0.9491    1.8717 H   0  0  0  0  0  0  0  0  0  0  0  0
    2.0520    0.7609    1.5636 H   0  0  0  0  0  0  0  0  0  0  0  0
    4.7609   -0.6316    1.4584 H   0  0  0  0  0  0  0  0  0  0  0  0
  1  2  1  0
  2  3  1  0
  3  4  1  0
  4  5  1  0
  5  6  1  0
  1  6  2  0
  5  7  1  0
  7  8  1  0
  8  9  1  0
  9 10  1  0
  4 10  1  0
  8 11  1  0
 11 12  1  0
 12 13  1  0
 13 14  1  0
  7 14  1  0
 12 15  1  0
 15 16  1  0
 16 17  1  0
 11 17  1  0
 15 18  1  0
 12 19  1  1
  5 20  1  1
  2 21  1  0
  1 22  1  0
  2 23  1  6
  3 24  1  0
  3 25  1  0
  4 26  1  6
  6 27  1  0
  7 28  1  6
  8 29  1  1
  9 30  1  0
  9 31  1  0
 10 32  1  0
 10 33  1  0
 11 34  1  6
 13 35  1  0
 13 36  1  0
 14 37  1  0
 14 38  1  0
 15 39  1  6
 16 40  1  0
 16 41  1  0
 17 42  1  0
 17 43  1  0
 18 44  1  0
 19 45  1  0
 19 46  1  0
 19 47  1  0
 20 48  1  0
 20 49  1  0
 20 50  1  0
 21 51  1  0
M  END

