46504529
     RDKit          3D

 52 53  0  0  1  0  0  0  0  0999 V2000
   -0.9365   -0.1550    1.4182 C   0  0  0  0  0  0  0  0  0  0  0  0
   -1.6426    0.8104    0.6130 C   0  0  0  0  0  0  0  0  0  0  0  0
    0.3868    0.1457    1.8429 C   0  0  0  0  0  0  0  0  0  0  0  0
    0.8824    1.3342    1.4483 O   0  0  0  0  0  0  0  0  0  0  0  0
   -0.9058    1.9065    0.3803 O   0  0  0  0  0  0  0  0  0  0  0  0
   -2.9543    0.8546    0.0098 C   0  0  0  0  0  0  0  0  0  0  0  0
    2.0750    1.9655    1.6214 C   0  0  0  0  0  0  0  0  0  0  0  0
    3.3010    1.3452    1.0207 C   0  0  0  0  0  0  0  0  0  0  0  0
   -3.8328   -0.2847    0.1205 C   0  0  0  0  0  0  0  0  0  0  0  0
    4.2775    1.0126   -1.2220 N   0  0  0  0  0  0  0  0  0  0  0  0
   -5.1643   -0.0802   -0.5672 C   0  0  0  0  0  0  0  0  0  0  0  0
    4.4429    2.1359    1.3068 O   0  0  0  0  0  0  0  0  0  0  0  0
   -1.4255   -1.3664    1.8313 C   0  0  0  0  0  0  0  0  0  0  0  0
    3.1413    1.4753   -0.4975 C   0  0  0  0  0  0  0  0  0  0  0  0
    1.1312   -0.7124    2.6149 C   0  0  0  0  0  0  0  0  0  0  0  0
    4.5291   -0.3927   -1.1767 C   0  0  0  0  0  0  0  0  0  0  0  0
   -5.2201   -0.4585   -1.8866 C   0  0  0  0  0  0  0  0  0  0  0  0
   -6.2636    0.4357    0.0245 C   0  0  0  0  0  0  0  0  0  0  0  0
    5.7835   -0.6485   -2.0252 C   0  0  0  0  0  0  0  0  0  0  0  0
   -0.6660   -2.2479    2.6208 C   0  0  0  0  0  0  0  0  0  0  0  0
    6.1456   -2.0996   -2.0513 C   0  0  0  0  0  0  0  0  0  0  0  0
    0.6036   -1.9236    3.0102 C   0  0  0  0  0  0  0  0  0  0  0  0
   -7.4481    0.5921   -0.6704 C   0  0  0  0  0  0  0  0  0  0  0  0
   -6.4155   -0.3038   -2.5985 C   0  0  0  0  0  0  0  0  0  0  0  0
   -7.5337    0.2185   -2.0049 C   0  0  0  0  0  0  0  0  0  0  0  0
   -3.4789    1.7534    0.5253 H   0  0  0  0  0  0  0  0  0  0  0  0
   -2.7731    1.1928   -1.0639 H   0  0  0  0  0  0  0  0  0  0  0  0
    2.2249    2.1355    2.7410 H   0  0  0  0  0  0  0  0  0  0  0  0
    1.9554    3.0384    1.2563 H   0  0  0  0  0  0  0  0  0  0  0  0
    3.4783    0.3297    1.3187 H   0  0  0  0  0  0  0  0  0  0  0  0
   -3.4402   -1.2224   -0.2905 H   0  0  0  0  0  0  0  0  0  0  0  0
   -4.1396   -0.4367    1.1740 H   0  0  0  0  0  0  0  0  0  0  0  0
    4.1548    1.2965   -2.2183 H   0  0  0  0  0  0  0  0  0  0  0  0
    5.0444    1.6482    1.8917 H   0  0  0  0  0  0  0  0  0  0  0  0
   -2.4128   -1.6791    1.5634 H   0  0  0  0  0  0  0  0  0  0  0  0
    2.1979    0.9709   -0.7838 H   0  0  0  0  0  0  0  0  0  0  0  0
    3.0162    2.5568   -0.6991 H   0  0  0  0  0  0  0  0  0  0  0  0
    2.1439   -0.4546    2.9510 H   0  0  0  0  0  0  0  0  0  0  0  0
    3.7266   -1.0019   -1.6606 H   0  0  0  0  0  0  0  0  0  0  0  0
    4.7592   -0.7811   -0.1777 H   0  0  0  0  0  0  0  0  0  0  0  0
   -4.4020   -0.8766   -2.4406 H   0  0  0  0  0  0  0  0  0  0  0  0
   -6.2245    0.7290    1.0419 H   0  0  0  0  0  0  0  0  0  0  0  0
    6.6374   -0.0726   -1.5746 H   0  0  0  0  0  0  0  0  0  0  0  0
    5.6186   -0.2992   -3.0678 H   0  0  0  0  0  0  0  0  0  0  0  0
   -1.1197   -3.1858    2.9070 H   0  0  0  0  0  0  0  0  0  0  0  0
    7.2526   -2.1664   -2.2017 H   0  0  0  0  0  0  0  0  0  0  0  0
    5.9377   -2.5880   -1.0853 H   0  0  0  0  0  0  0  0  0  0  0  0
    5.6322   -2.5941   -2.9035 H   0  0  0  0  0  0  0  0  0  0  0  0
    1.2018   -2.5886    3.6173 H   0  0  0  0  0  0  0  0  0  0  0  0
   -8.3403    1.0014   -0.2212 H   0  0  0  0  0  0  0  0  0  0  0  0
   -6.4953   -0.5924   -3.6413 H   0  0  0  0  0  0  0  0  0  0  0  0
   -8.4465    0.3283   -2.5784 H   0  0  0  0  0  0  0  0  0  0  0  0
  1  2  1  0
  1  3  2  0
  1 13  1  0
  2  5  2  0
  2  6  1  0
  3  4  1  0
  3 15  1  0
  4  7  1  0
  6  9  1  0
  7  8  1  0
  8 12  1  0
  8 14  1  0
  9 11  1  0
 10 14  1  0
 10 16  1  0
 11 17  2  0
 11 18  1  0
 13 20  2  0
 15 22  2  0
 16 19  1  0
 17 24  1  0
 18 23  2  0
 19 21  1  0
 20 22  1  0
 23 25  1  0
 24 25  2  0
  6 26  1  0
  6 27  1  0
  7 28  1  0
  7 29  1  0
  8 30  1  0
  9 31  1  0
  9 32  1  0
 10 33  1  0
 12 34  1  0
 13 35  1  0
 14 36  1  0
 14 37  1  0
 15 38  1  0
 16 39  1  0
 16 40  1  0
 17 41  1  0
 18 42  1  0
 19 43  1  0
 19 44  1  0
 20 45  1  0
 21 46  1  0
 21 47  1  0
 21 48  1  0
 22 49  1  0
 23 50  1  0
 24 51  1  0
 25 52  1  0
M  END

