46505615
     RDKit          3D

 20 19  0  0  1  0  0  0  0  0999 V2000
    2.9480    0.0975   -1.3534 O   0  0  0  0  0  0  0  0  0  0  0  0
    1.5971   -0.1615   -1.1086 C   0  0  0  0  0  0  0  0  0  0  0  0
    1.3351    0.1347    0.3507 C   0  0  2  0  0  0  0  0  0  0  0  0
    2.1604   -0.7061    1.0983 O   0  0  0  0  0  0  0  0  0  0  0  0
   -0.0866   -0.1712    0.7461 C   0  0  2  0  0  0  0  0  0  0  0  0
   -0.3745   -1.4881    0.4772 O   0  0  0  0  0  0  0  0  0  0  0  0
   -1.0735    0.7161    0.1304 C   0  0  0  0  0  0  0  0  0  0  0  0
   -1.0521    1.9340    0.2140 O   0  0  0  0  0  0  0  0  0  0  0  0
   -2.1867    0.1172   -0.6550 C   0  0  0  0  0  0  0  0  0  0  0  0
   -3.0452    1.0785   -1.1795 O   0  0  0  0  0  0  0  0  0  0  0  0
    3.3121    0.7600   -0.7005 H   0  0  0  0  0  0  0  0  0  0  0  0
    1.0036    0.4429   -1.7939 H   0  0  0  0  0  0  0  0  0  0  0  0
    1.4277   -1.2505   -1.2984 H   0  0  0  0  0  0  0  0  0  0  0  0
    1.6016    1.1667    0.5952 H   0  0  0  0  0  0  0  0  0  0  0  0
    1.7955   -1.6296    0.9630 H   0  0  0  0  0  0  0  0  0  0  0  0
   -0.1437   -0.0231    1.8541 H   0  0  0  0  0  0  0  0  0  0  0  0
   -1.2800   -1.6726    0.8527 H   0  0  0  0  0  0  0  0  0  0  0  0
   -1.8328   -0.5537   -1.4560 H   0  0  0  0  0  0  0  0  0  0  0  0
   -2.7865   -0.5151    0.0478 H   0  0  0  0  0  0  0  0  0  0  0  0
   -3.3195    1.7240   -0.5042 H   0  0  0  0  0  0  0  0  0  0  0  0
  1  2  1  0
  2  3  1  0
  3  4  1  0
  3  5  1  0
  5  6  1  0
  5  7  1  0
  7  8  2  0
  7  9  1  0
  9 10  1  0
  1 11  1  0
  2 12  1  0
  2 13  1  0
  3 14  1  6
  4 15  1  0
  5 16  1  1
  6 17  1  0
  9 18  1  0
  9 19  1  0
 10 20  1  0
M  END

