46506513
     RDKit          3D

 31 31  0  0  1  0  0  0  0  0999 V2000
   -3.0250   -0.5295    0.7823 C   0  0  0  0  0  0  0  0  0  0  0  0
   -2.1180   -0.0660   -0.3252 C   0  0  0  0  0  0  0  0  0  0  0  0
   -2.2198    1.4157   -0.5894 C   0  0  0  0  0  0  0  0  0  0  0  0
   -0.6891   -0.5044   -0.1037 C   0  0  2  0  0  0  0  0  0  0  0  0
   -0.1062    0.0242    1.1658 C   0  0  0  0  0  0  0  0  0  0  0  0
    1.2892   -0.5568    1.3097 C   0  0  0  0  0  0  0  0  0  0  0  0
    2.1093    0.0534    0.1827 C   0  0  1  0  0  0  0  0  0  0  0  0
    3.5716   -0.1956    0.3241 C   0  0  0  0  0  0  0  0  0  0  0  0
    1.5511   -0.4336   -1.1350 C   0  0  0  0  0  0  0  0  0  0  0  0
    0.1381    0.0740   -1.2558 C   0  0  1  0  0  0  0  0  0  0  0  0
   -0.4253   -0.2537   -2.4910 O   0  0  0  0  0  0  0  0  0  0  0  0
   -2.7256   -1.5477    1.0726 H   0  0  0  0  0  0  0  0  0  0  0  0
   -2.9584    0.1093    1.6865 H   0  0  0  0  0  0  0  0  0  0  0  0
   -4.0798   -0.4895    0.4407 H   0  0  0  0  0  0  0  0  0  0  0  0
   -2.4742   -0.5743   -1.2589 H   0  0  0  0  0  0  0  0  0  0  0  0
   -2.0011    1.6382   -1.6569 H   0  0  0  0  0  0  0  0  0  0  0  0
   -1.5309    1.9869    0.0841 H   0  0  0  0  0  0  0  0  0  0  0  0
   -3.2549    1.7678   -0.3979 H   0  0  0  0  0  0  0  0  0  0  0  0
   -0.6386   -1.6083   -0.1357 H   0  0  0  0  0  0  0  0  0  0  0  0
    0.0444    1.1379    1.0689 H   0  0  0  0  0  0  0  0  0  0  0  0
   -0.7281   -0.1701    2.0581 H   0  0  0  0  0  0  0  0  0  0  0  0
    1.7312   -0.2642    2.2936 H   0  0  0  0  0  0  0  0  0  0  0  0
    1.2819   -1.6508    1.1785 H   0  0  0  0  0  0  0  0  0  0  0  0
    1.9320    1.1592    0.2149 H   0  0  0  0  0  0  0  0  0  0  0  0
    4.0005    0.6194    0.9664 H   0  0  0  0  0  0  0  0  0  0  0  0
    3.7514   -1.1701    0.8151 H   0  0  0  0  0  0  0  0  0  0  0  0
    4.0269   -0.1488   -0.6881 H   0  0  0  0  0  0  0  0  0  0  0  0
    2.1367    0.0631   -1.9502 H   0  0  0  0  0  0  0  0  0  0  0  0
    1.5367   -1.5283   -1.2177 H   0  0  0  0  0  0  0  0  0  0  0  0
    0.1090    1.1791   -1.1325 H   0  0  0  0  0  0  0  0  0  0  0  0
   -0.2348    0.4637   -3.1599 H   0  0  0  0  0  0  0  0  0  0  0  0
  1  2  1  0
  2  3  1  0
  4  2  1  0
  4  5  1  0
  5  6  1  0
  6  7  1  0
  7  8  1  0
  7  9  1  0
  9 10  1  0
  4 10  1  0
 10 11  1  0
  1 12  1  0
  1 13  1  0
  1 14  1  0
  2 15  1  0
  3 16  1  0
  3 17  1  0
  3 18  1  0
  4 19  1  1
  5 20  1  0
  5 21  1  0
  6 22  1  0
  6 23  1  0
  7 24  1  6
  8 25  1  0
  8 26  1  0
  8 27  1  0
  9 28  1  0
  9 29  1  0
 10 30  1  1
 11 31  1  0
M  END

