46507876
     RDKit          3D

 88 92  0  0  0  0  0  0  0  0999 V2000
   -6.2126   -5.4106   -1.3170 C   0  0  0  0  0  0  0  0  0  0  0  0
   -6.5348   -4.7722   -0.0051 C   0  0  0  0  0  0  0  0  0  0  0  0
   -5.3015   -4.1230    0.6144 C   0  0  0  0  0  0  0  0  0  0  0  0
   -5.7091   -3.4924    1.9480 C   0  0  0  0  0  0  0  0  0  0  0  0
   -4.5312   -2.8340    2.6105 C   0  0  0  0  0  0  0  0  0  0  0  0
   -3.9175   -1.7593    1.8213 C   0  0  0  0  0  0  0  0  0  0  0  0
   -4.2866   -0.4393    1.9040 C   0  0  0  0  0  0  0  0  0  0  0  0
   -3.6624    0.5030    1.1294 C   0  0  0  0  0  0  0  0  0  0  0  0
   -2.6278    0.2092    0.2162 C   0  0  0  0  0  0  0  0  0  0  0  0
   -2.2727   -1.1112    0.1475 C   0  0  0  0  0  0  0  0  0  0  0  0
   -2.9116   -2.0647    0.9378 C   0  0  0  0  0  0  0  0  0  0  0  0
   -2.0234    1.2823   -0.5338 C   0  0  0  0  0  0  0  0  0  0  0  0
   -2.4620    2.4755   -0.1774 O   0  0  0  0  0  0  0  0  0  0  0  0
   -1.0882    1.2865   -1.5378 N   0  0  0  0  0  0  0  0  0  0  0  0
   -0.4431    0.1922   -2.1647 C   0  0  0  0  0  0  0  0  0  0  0  0
    0.8093   -0.2686   -1.4907 C   0  0  0  0  0  0  0  0  0  0  0  0
    1.7614   -1.0036   -2.1617 C   0  0  0  0  0  0  0  0  0  0  0  0
    2.9349   -1.4483   -1.5392 C   0  0  0  0  0  0  0  0  0  0  0  0
    3.1566   -1.1490   -0.2176 C   0  0  0  0  0  0  0  0  0  0  0  0
    2.1869   -0.4126    0.4265 C   0  0  0  0  0  0  0  0  0  0  0  0
    1.0248    0.0348   -0.1676 C   0  0  0  0  0  0  0  0  0  0  0  0
    4.3837   -1.6174    0.4141 C   0  0  0  0  0  0  0  0  0  0  0  0
    5.5681   -1.7525   -0.2766 C   0  0  0  0  0  0  0  0  0  0  0  0
    6.7087   -2.2037    0.3534 C   0  0  0  0  0  0  0  0  0  0  0  0
    6.7383   -2.5422    1.6881 C   0  0  0  0  0  0  0  0  0  0  0  0
    8.0017   -3.0242    2.3175 C   0  0  0  0  0  0  0  0  0  0  0  0
    8.1530   -4.4831    2.2057 C   0  0  0  0  0  0  0  0  0  0  0  0
    7.2696   -5.1551    1.6374 O   0  0  0  0  0  0  0  0  0  0  0  0
    9.2600   -5.1190    2.7213 O   0  0  0  0  0  0  0  0  0  0  0  0
    9.3440   -6.5249    2.5793 C   0  0  0  0  0  0  0  0  0  0  0  0
    5.5573   -2.4107    2.3888 C   0  0  0  0  0  0  0  0  0  0  0  0
    4.4125   -1.9591    1.7616 C   0  0  0  0  0  0  0  0  0  0  0  0
   -0.6809    2.6304   -2.0556 C   0  0  0  0  0  0  0  0  0  0  0  0
   -0.0315    3.3539   -0.9388 C   0  0  0  0  0  0  0  0  0  0  0  0
   -0.2549    4.8553   -0.9561 C   0  0  0  0  0  0  0  0  0  0  0  0
   -0.6491    5.2295   -2.2791 N   0  0  0  0  0  0  0  0  0  0  0  0
   -1.9925    4.7479   -2.4831 C   0  0  0  0  0  0  0  0  0  0  0  0
   -1.8987    3.2457   -2.6493 C   0  0  0  0  0  0  0  0  0  0  0  0
   -0.4769    6.6017   -2.6218 C   0  0  0  0  0  0  0  0  0  0  0  0
   -1.2325    7.5504   -1.7831 C   0  0  0  0  0  0  0  0  0  0  0  0
   -2.0506    7.2111   -0.7761 N   0  0  0  0  0  0  0  0  0  0  0  0
   -2.5767    8.3305   -0.2288 C   0  0  0  0  0  0  0  0  0  0  0  0
   -2.0461    9.3811   -0.9442 C   0  0  0  0  0  0  0  0  0  0  0  0
   -1.2331    8.8878   -1.8828 N   0  0  0  0  0  0  0  0  0  0  0  0
   -6.4930   -4.7166   -2.1377 H   0  0  0  0  0  0  0  0  0  0  0  0
   -6.7650   -6.3587   -1.4568 H   0  0  0  0  0  0  0  0  0  0  0  0
   -5.1265   -5.6283   -1.3870 H   0  0  0  0  0  0  0  0  0  0  0  0
   -7.2965   -3.9964   -0.0990 H   0  0  0  0  0  0  0  0  0  0  0  0
   -6.8631   -5.5962    0.6937 H   0  0  0  0  0  0  0  0  0  0  0  0
   -4.6139   -4.9564    0.8610 H   0  0  0  0  0  0  0  0  0  0  0  0
   -4.8484   -3.3786   -0.0569 H   0  0  0  0  0  0  0  0  0  0  0  0
   -6.5404   -2.8120    1.7439 H   0  0  0  0  0  0  0  0  0  0  0  0
   -6.0819   -4.2706    2.6436 H   0  0  0  0  0  0  0  0  0  0  0  0
   -3.7583   -3.6306    2.7519 H   0  0  0  0  0  0  0  0  0  0  0  0
   -4.8211   -2.4291    3.5884 H   0  0  0  0  0  0  0  0  0  0  0  0
   -5.0684   -0.1180    2.5727 H   0  0  0  0  0  0  0  0  0  0  0  0
   -3.9733    1.5354    1.2131 H   0  0  0  0  0  0  0  0  0  0  0  0
   -1.4832   -1.4325   -0.5105 H   0  0  0  0  0  0  0  0  0  0  0  0
   -2.5818   -3.0873    0.8323 H   0  0  0  0  0  0  0  0  0  0  0  0
   -1.0323   -0.6707   -2.4545 H   0  0  0  0  0  0  0  0  0  0  0  0
   -0.0539    0.5782   -3.1880 H   0  0  0  0  0  0  0  0  0  0  0  0
    1.5813   -1.2387   -3.2086 H   0  0  0  0  0  0  0  0  0  0  0  0
    3.6095   -2.0153   -2.1600 H   0  0  0  0  0  0  0  0  0  0  0  0
    2.3631   -0.1775    1.4674 H   0  0  0  0  0  0  0  0  0  0  0  0
    0.2871    0.6213    0.4112 H   0  0  0  0  0  0  0  0  0  0  0  0
    5.5701   -1.4877   -1.3452 H   0  0  0  0  0  0  0  0  0  0  0  0
    7.6471   -2.3070   -0.2064 H   0  0  0  0  0  0  0  0  0  0  0  0
    8.0442   -2.7093    3.4015 H   0  0  0  0  0  0  0  0  0  0  0  0
    8.8980   -2.5554    1.8646 H   0  0  0  0  0  0  0  0  0  0  0  0
   10.2623   -6.8743    3.0640 H   0  0  0  0  0  0  0  0  0  0  0  0
    8.4364   -6.9657    3.0216 H   0  0  0  0  0  0  0  0  0  0  0  0
    9.3064   -6.7312    1.4886 H   0  0  0  0  0  0  0  0  0  0  0  0
    5.5459   -2.6687    3.4388 H   0  0  0  0  0  0  0  0  0  0  0  0
    3.4654   -1.8471    2.2943 H   0  0  0  0  0  0  0  0  0  0  0  0
    0.0912    2.5021   -2.8610 H   0  0  0  0  0  0  0  0  0  0  0  0
    1.0924    3.2254   -1.0437 H   0  0  0  0  0  0  0  0  0  0  0  0
   -0.2430    2.9245    0.0580 H   0  0  0  0  0  0  0  0  0  0  0  0
    0.6120    5.4113   -0.5545 H   0  0  0  0  0  0  0  0  0  0  0  0
   -1.1346    5.0404   -0.2736 H   0  0  0  0  0  0  0  0  0  0  0  0
   -2.5824    5.0064   -1.5830 H   0  0  0  0  0  0  0  0  0  0  0  0
   -2.3882    5.2455   -3.3942 H   0  0  0  0  0  0  0  0  0  0  0  0
   -1.8257    3.1012   -3.7774 H   0  0  0  0  0  0  0  0  0  0  0  0
   -2.8590    2.7544   -2.3987 H   0  0  0  0  0  0  0  0  0  0  0  0
    0.5989    6.8670   -2.6921 H   0  0  0  0  0  0  0  0  0  0  0  0
   -0.8716    6.7104   -3.6765 H   0  0  0  0  0  0  0  0  0  0  0  0
   -3.2751    8.3393    0.6074 H   0  0  0  0  0  0  0  0  0  0  0  0
   -2.2938   10.4199   -0.7251 H   0  0  0  0  0  0  0  0  0  0  0  0
   -0.6999    9.4490   -2.5643 H   0  0  0  0  0  0  0  0  0  0  0  0
  1  2  1  0
  2  3  1  0
  3  4  1  0
  4  5  1  0
  5  6  1  0
  6  7  2  0
  7  8  1  0
  8  9  2  0
  9 10  1  0
 10 11  2  0
  6 11  1  0
  9 12  1  0
 12 13  2  0
 12 14  1  0
 14 15  1  0
 15 16  1  0
 16 17  2  0
 17 18  1  0
 18 19  2  0
 19 20  1  0
 20 21  2  0
 16 21  1  0
 19 22  1  0
 22 23  2  0
 23 24  1  0
 24 25  2  0
 25 26  1  0
 26 27  1  0
 27 28  2  0
 27 29  1  0
 29 30  1  0
 25 31  1  0
 31 32  2  0
 22 32  1  0
 14 33  1  0
 33 34  1  0
 34 35  1  0
 35 36  1  0
 36 37  1  0
 37 38  1  0
 33 38  1  0
 36 39  1  0
 39 40  1  0
 40 41  2  0
 41 42  1  0
 42 43  2  0
 43 44  1  0
 40 44  1  0
  1 45  1  0
  1 46  1  0
  1 47  1  0
  2 48  1  0
  2 49  1  0
  3 50  1  0
  3 51  1  0
  4 52  1  0
  4 53  1  0
  5 54  1  0
  5 55  1  0
  7 56  1  0
  8 57  1  0
 10 58  1  0
 11 59  1  0
 15 60  1  0
 15 61  1  0
 17 62  1  0
 18 63  1  0
 20 64  1  0
 21 65  1  0
 23 66  1  0
 24 67  1  0
 26 68  1  0
 26 69  1  0
 30 70  1  0
 30 71  1  0
 30 72  1  0
 31 73  1  0
 32 74  1  0
 33 75  1  0
 34 76  1  0
 34 77  1  0
 35 78  1  0
 35 79  1  0
 37 80  1  0
 37 81  1  0
 38 82  1  0
 38 83  1  0
 39 84  1  0
 39 85  1  0
 42 86  1  0
 43 87  1  0
 44 88  1  0
M  END

