46508535
     RDKit          3D

 28 28  0  0  1  0  0  0  0  0999 V2000
    2.2125   -1.7046    0.0741 C   0  0  0  0  0  0  0  0  0  0  0  0
    3.0505   -0.6266    0.1834 C   0  0  0  0  0  0  0  0  0  0  0  0
    0.4687   -0.2558   -0.6876 C   0  0  0  0  0  0  0  0  0  0  0  0
    1.3269    0.8102   -0.5704 C   0  0  0  0  0  0  0  0  0  0  0  0
    0.9079   -1.5227   -0.3653 C   0  0  0  0  0  0  0  0  0  0  0  0
   -1.5112    1.2646    0.7905 C   0  0  0  0  0  0  0  0  0  0  0  0
   -0.4359    1.4092    1.4445 O   0  0  0  0  0  0  0  0  0  0  0  0
   -1.8625    0.0906   -0.0007 C   0  0  1  0  0  0  0  0  0  0  0  0
   -0.9181   -0.0847   -1.1437 C   0  0  0  0  0  0  0  0  0  0  0  0
   -2.3905    2.3305    0.8626 O   0  0  0  0  0  0  0  0  0  0  0  0
    4.3533   -0.8359    0.6263 O   0  0  0  0  0  0  0  0  0  0  0  0
    2.6053    0.6331   -0.1399 C   0  0  0  0  0  0  0  0  0  0  0  0
    3.4494    1.7139   -0.0290 O   0  0  0  0  0  0  0  0  0  0  0  0
   -1.9153   -1.1812    0.8176 C   0  0  0  0  0  0  0  0  0  0  0  0
   -3.2405    0.2826   -0.4917 N   0  0  0  0  0  0  0  0  0  0  0  0
    2.5423   -2.6927    0.3214 H   0  0  0  0  0  0  0  0  0  0  0  0
    1.0150    1.8172   -0.8209 H   0  0  0  0  0  0  0  0  0  0  0  0
    0.2591   -2.3849   -0.4460 H   0  0  0  0  0  0  0  0  0  0  0  0
   -0.9562    0.7942   -1.8276 H   0  0  0  0  0  0  0  0  0  0  0  0
   -1.2537   -0.9709   -1.7244 H   0  0  0  0  0  0  0  0  0  0  0  0
   -2.4925    3.0194    0.1200 H   0  0  0  0  0  0  0  0  0  0  0  0
    4.9681   -0.0570    0.7083 H   0  0  0  0  0  0  0  0  0  0  0  0
    3.1515    2.6421   -0.2577 H   0  0  0  0  0  0  0  0  0  0  0  0
   -0.9941   -1.4001    1.3561 H   0  0  0  0  0  0  0  0  0  0  0  0
   -2.1859   -1.9976    0.1104 H   0  0  0  0  0  0  0  0  0  0  0  0
   -2.7999   -1.0765    1.5004 H   0  0  0  0  0  0  0  0  0  0  0  0
   -3.5836   -0.6578   -0.7617 H   0  0  0  0  0  0  0  0  0  0  0  0
   -3.7705    0.6414    0.3512 H   0  0  0  0  0  0  0  0  0  0  0  0
  1  2  2  0
  2 11  1  0
  3  9  1  0
  3  4  1  0
  1  5  1  0
  3  5  2  0
  2 12  1  0
  4 12  2  0
  6  7  2  0
  8  6  1  1
  6 10  1  0
  8  9  1  0
 12 13  1  0
  8 14  1  0
  8 15  1  0
  1 16  1  0
  4 17  1  0
  5 18  1  0
  9 19  1  0
  9 20  1  0
 10 21  1  0
 11 22  1  0
 13 23  1  0
 14 24  1  0
 14 25  1  0
 14 26  1  0
 15 27  1  0
 15 28  1  0
M  END

