46506386
     RDKit          3D

 83 85  0  0  1  0  0  0  0  0999 V2000
   -1.1338    0.9592    1.0364 C   0  0  1  0  0  0  0  0  0  0  0  0
    0.8076    2.0645   -0.0329 C   0  0  1  0  0  0  0  0  0  0  0  0
   -0.5267   -0.3206    0.5974 C   0  0  1  0  0  0  0  0  0  0  0  0
    0.9513   -0.3854    0.5273 C   0  0  2  0  0  0  0  0  0  0  0  0
    1.6653    0.8050   -0.0044 C   0  0  2  0  0  0  0  0  0  0  0  0
   -1.7770   -2.2832    0.6468 C   0  0  2  0  0  0  0  0  0  0  0  0
   -3.1473   -2.3097    1.3216 C   0  0  1  0  0  0  0  0  0  0  0  0
   -3.6674   -3.7288    1.3991 C   0  0  2  0  0  0  0  0  0  0  0  0
   -3.2906   -4.4000    0.0922 C   0  0  1  0  0  0  0  0  0  0  0  0
   -1.7841   -4.5320    0.0883 C   0  0  2  0  0  0  0  0  0  0  0  0
   -1.1436   -3.5143    0.7522 O   0  0  0  0  0  0  0  0  0  0  0  0
   -3.8198   -5.6953    0.0160 O   0  0  0  0  0  0  0  0  0  0  0  0
   -1.2685   -4.7715   -1.3122 C   0  0  0  0  0  0  0  0  0  0  0  0
   -5.0759   -3.7437    1.6547 N   0  0  0  0  0  0  0  0  0  0  0  0
    0.0849   -5.0990   -1.2133 O   0  0  0  0  0  0  0  0  0  0  0  0
    0.1330    2.1457   -1.2903 N   0  0  0  0  0  0  0  0  0  0  0  0
    1.3453   -1.5554   -0.1551 O   0  0  0  0  0  0  0  0  0  0  0  0
   -1.0117   -1.3718    1.3726 O   0  0  0  0  0  0  0  0  0  0  0  0
    2.8173    1.0675    0.7307 O   0  0  0  0  0  0  0  0  0  0  0  0
    3.9875    1.0168   -0.0132 C   0  0  1  0  0  0  0  0  0  0  0  0
    4.5977    2.2396   -0.0393 O   0  0  0  0  0  0  0  0  0  0  0  0
    5.9433    2.2609   -0.2569 C   0  0  1  0  0  0  0  0  0  0  0  0
    6.7678    1.3785    0.6256 C   0  0  2  0  0  0  0  0  0  0  0  0
    5.8416    0.5178    1.4736 C   0  0  1  0  0  0  0  0  0  0  0  0
    4.8622   -0.1124    0.4717 C   0  0  1  0  0  0  0  0  0  0  0  0
    6.3156    2.0861   -1.7347 C   0  0  0  0  0  0  0  0  0  0  0  0
    4.1797   -1.1625    1.0295 O   0  0  0  0  0  0  0  0  0  0  0  0
    6.5104   -0.4254    2.2140 O   0  0  0  0  0  0  0  0  0  0  0  0
    7.6541    2.0760    1.4410 O   0  0  0  0  0  0  0  0  0  0  0  0
   -0.1337    2.0912    1.1476 C   0  0  0  0  0  0  0  0  0  0  0  0
   -2.2816    1.3507    0.2286 N   0  0  0  0  0  0  0  0  0  0  0  0
   -4.4828    3.2076   -0.7090 C   0  0  0  0  0  0  0  0  0  0  0  0
   -3.5875    1.5104    0.7872 C   0  0  0  0  0  0  0  0  0  0  0  0
   -3.7012    1.2949    2.0254 O   0  0  0  0  0  0  0  0  0  0  0  0
   -5.6619    3.6535   -1.5462 C   0  0  0  0  0  0  0  0  0  0  0  0
   -6.8546    3.8472   -0.7638 N   0  0  0  0  0  0  0  0  0  0  0  0
   -4.7565    1.9041   -0.0116 C   0  0  1  0  0  0  0  0  0  0  0  0
   -5.8691    1.9837    0.8011 O   0  0  0  0  0  0  0  0  0  0  0  0
    7.7675    2.1313   -1.7867 N   0  0  0  0  0  0  0  0  0  0  0  0
   -3.1194   -1.6988    2.5668 O   0  0  0  0  0  0  0  0  0  0  0  0
   -1.5228    0.8170    2.0803 H   0  0  0  0  0  0  0  0  0  0  0  0
    1.4836    2.9308    0.0547 H   0  0  0  0  0  0  0  0  0  0  0  0
   -0.9143   -0.5239   -0.4452 H   0  0  0  0  0  0  0  0  0  0  0  0
    1.3251   -0.5521    1.5812 H   0  0  0  0  0  0  0  0  0  0  0  0
    1.9271    0.6013   -1.0632 H   0  0  0  0  0  0  0  0  0  0  0  0
   -1.8528   -1.9814   -0.4246 H   0  0  0  0  0  0  0  0  0  0  0  0
   -3.8333   -1.7351    0.6784 H   0  0  0  0  0  0  0  0  0  0  0  0
   -3.1548   -4.2852    2.2049 H   0  0  0  0  0  0  0  0  0  0  0  0
   -3.6576   -3.7929   -0.7573 H   0  0  0  0  0  0  0  0  0  0  0  0
   -1.5577   -5.4777    0.6656 H   0  0  0  0  0  0  0  0  0  0  0  0
   -4.6042   -5.7116   -0.5835 H   0  0  0  0  0  0  0  0  0  0  0  0
   -1.4623   -3.9371   -1.9962 H   0  0  0  0  0  0  0  0  0  0  0  0
   -1.7758   -5.7017   -1.6759 H   0  0  0  0  0  0  0  0  0  0  0  0
   -5.3223   -4.2783    2.5000 H   0  0  0  0  0  0  0  0  0  0  0  0
   -5.6675   -3.9024    0.8332 H   0  0  0  0  0  0  0  0  0  0  0  0
    0.1929   -5.6796   -0.4140 H   0  0  0  0  0  0  0  0  0  0  0  0
    0.1622    3.0886   -1.7376 H   0  0  0  0  0  0  0  0  0  0  0  0
    0.4472    1.4244   -1.9780 H   0  0  0  0  0  0  0  0  0  0  0  0
    0.9171   -1.5114   -1.0461 H   0  0  0  0  0  0  0  0  0  0  0  0
    3.6838    0.7654   -1.0587 H   0  0  0  0  0  0  0  0  0  0  0  0
    6.2794    3.3174   -0.0273 H   0  0  0  0  0  0  0  0  0  0  0  0
    7.3431    0.6552   -0.0067 H   0  0  0  0  0  0  0  0  0  0  0  0
    5.2795    1.2534    2.1204 H   0  0  0  0  0  0  0  0  0  0  0  0
    5.5163   -0.4917   -0.3618 H   0  0  0  0  0  0  0  0  0  0  0  0
    5.8874    1.1683   -2.1331 H   0  0  0  0  0  0  0  0  0  0  0  0
    5.9240    2.9830   -2.2565 H   0  0  0  0  0  0  0  0  0  0  0  0
    3.7336   -0.8780    1.8566 H   0  0  0  0  0  0  0  0  0  0  0  0
    6.6261   -0.0863    3.1545 H   0  0  0  0  0  0  0  0  0  0  0  0
    7.7310    2.9804    1.0633 H   0  0  0  0  0  0  0  0  0  0  0  0
   -0.6434    3.0531    1.1504 H   0  0  0  0  0  0  0  0  0  0  0  0
    0.4491    1.9256    2.0563 H   0  0  0  0  0  0  0  0  0  0  0  0
   -2.1971    1.5323   -0.7975 H   0  0  0  0  0  0  0  0  0  0  0  0
   -4.1544    4.0106   -0.0446 H   0  0  0  0  0  0  0  0  0  0  0  0
   -3.6480    3.0087   -1.4399 H   0  0  0  0  0  0  0  0  0  0  0  0
   -5.3850    4.6345   -1.9970 H   0  0  0  0  0  0  0  0  0  0  0  0
   -5.8860    2.9139   -2.3316 H   0  0  0  0  0  0  0  0  0  0  0  0
   -7.7298    3.7101   -1.2766 H   0  0  0  0  0  0  0  0  0  0  0  0
   -6.8219    4.6305   -0.1054 H   0  0  0  0  0  0  0  0  0  0  0  0
   -4.9755    1.1580   -0.8219 H   0  0  0  0  0  0  0  0  0  0  0  0
   -6.3218    1.0917    0.9150 H   0  0  0  0  0  0  0  0  0  0  0  0
    8.1166    2.8859   -2.4256 H   0  0  0  0  0  0  0  0  0  0  0  0
    8.1558    1.2302   -2.1617 H   0  0  0  0  0  0  0  0  0  0  0  0
   -2.2297   -1.7268    2.9982 H   0  0  0  0  0  0  0  0  0  0  0  0
  1 30  1  0
  1 31  1  0
  2 30  1  0
  2 16  1  0
  1  3  1  0
  3 18  1  0
  3  4  1  0
  4 17  1  0
  4  5  1  0
  2  5  1  0
  5 19  1  0
  6 18  1  0
  6  7  1  0
  6 11  1  0
  7  8  1  0
  7 40  1  0
  8  9  1  0
  8 14  1  0
  9 10  1  0
  9 12  1  0
 10 11  1  0
 10 13  1  0
 13 15  1  0
 20 19  1  0
 20 21  1  0
 20 25  1  0
 21 22  1  0
 22 23  1  0
 22 26  1  0
 23 24  1  0
 23 29  1  0
 24 25  1  0
 24 28  1  0
 25 27  1  0
 26 39  1  0
 31 33  1  0
 33 37  1  0
 32 37  1  0
 32 35  1  0
 33 34  2  0
 35 36  1  0
 37 38  1  0
  1 41  1  1
  2 42  1  1
  3 43  1  6
  4 44  1  1
  5 45  1  6
  6 46  1  6
  7 47  1  6
  8 48  1  1
  9 49  1  6
 10 50  1  1
 12 51  1  0
 13 52  1  0
 13 53  1  0
 14 54  1  0
 14 55  1  0
 15 56  1  0
 16 57  1  0
 16 58  1  0
 17 59  1  0
 20 60  1  6
 22 61  1  1
 23 62  1  6
 24 63  1  1
 25 64  1  6
 26 65  1  0
 26 66  1  0
 27 67  1  0
 28 68  1  0
 29 69  1  0
 30 70  1  0
 30 71  1  0
 31 72  1  0
 32 73  1  0
 32 74  1  0
 35 75  1  0
 35 76  1  0
 36 77  1  0
 36 78  1  0
 37 79  1  6
 38 80  1  0
 39 81  1  0
 39 82  1  0
 40 83  1  0
M  END

