46508767
     RDKit          3D

 58 59  0  0  1  0  0  0  0  0999 V2000
   -1.7739   -0.3867    0.2270 N   0  0  0  0  0  0  0  0  0  0  0  0
   -2.8251    0.4411   -0.2705 C   0  0  2  0  0  0  0  0  0  0  0  0
   -2.2277   -1.7323    0.2286 C   0  0  1  0  0  0  0  0  0  0  0  0
   -0.4981    0.1112    0.6357 C   0  0  0  0  0  0  0  0  0  0  0  0
   -4.1017   -0.2615    0.0916 C   0  0  2  0  0  0  0  0  0  0  0  0
   -2.7456    0.6396   -1.7614 C   0  0  0  0  0  0  0  0  0  0  0  0
   -3.7042   -1.6999    0.0135 C   0  0  0  0  0  0  0  0  0  0  0  0
   -1.5495   -2.6069   -0.7753 C   0  0  0  0  0  0  0  0  0  0  0  0
    0.5776   -0.7419    1.1887 C   0  0  1  0  0  0  0  0  0  0  0  0
   -0.2935    1.3661    0.5105 O   0  0  0  0  0  0  0  0  0  0  0  0
   -5.2135    0.0773   -0.8856 C   0  0  0  0  0  0  0  0  0  0  0  0
   -3.8369    1.5980   -2.2136 C   0  0  0  0  0  0  0  0  0  0  0  0
   -0.6330   -2.1748   -1.6761 O   0  0  0  0  0  0  0  0  0  0  0  0
   -1.8598   -3.8252   -0.7735 O   0  0  0  0  0  0  0  0  0  0  0  0
    1.7595    0.0118    1.4002 N   0  0  0  0  0  0  0  0  0  0  0  0
    0.0670   -1.2729    2.5412 C   0  0  0  0  0  0  0  0  0  0  0  0
   -5.0362    1.5234   -1.2865 C   0  0  0  0  0  0  0  0  0  0  0  0
    2.4354    0.5589    0.2876 C   0  0  2  0  0  0  0  0  0  0  0  0
    2.9623   -0.4363   -0.6623 C   0  0  0  0  0  0  0  0  0  0  0  0
    3.5993    1.4002    0.8684 C   0  0  0  0  0  0  0  0  0  0  0  0
    3.6391   -0.0586   -1.7993 O   0  0  0  0  0  0  0  0  0  0  0  0
    2.7968   -1.6508   -0.4400 O   0  0  0  0  0  0  0  0  0  0  0  0
    2.9538    2.4552    1.7395 C   0  0  0  0  0  0  0  0  0  0  0  0
    4.1298   -1.0549   -2.6854 C   0  0  0  0  0  0  0  0  0  0  0  0
    4.0436    3.3354    2.3519 C   0  0  0  0  0  0  0  0  0  0  0  0
    5.0961   -1.9164   -1.9124 C   0  0  0  0  0  0  0  0  0  0  0  0
   -2.7465    1.4453    0.1960 H   0  0  0  0  0  0  0  0  0  0  0  0
   -2.0405   -2.1850    1.2366 H   0  0  0  0  0  0  0  0  0  0  0  0
   -4.4527   -0.0487    1.1224 H   0  0  0  0  0  0  0  0  0  0  0  0
   -1.7786    1.1081   -2.0332 H   0  0  0  0  0  0  0  0  0  0  0  0
   -2.9070   -0.3209   -2.3194 H   0  0  0  0  0  0  0  0  0  0  0  0
   -3.8846   -2.0868   -1.0242 H   0  0  0  0  0  0  0  0  0  0  0  0
   -4.2556   -2.3273    0.7588 H   0  0  0  0  0  0  0  0  0  0  0  0
    0.7303   -1.6632    0.5845 H   0  0  0  0  0  0  0  0  0  0  0  0
   -5.1295   -0.5183   -1.8278 H   0  0  0  0  0  0  0  0  0  0  0  0
   -6.1727   -0.0927   -0.3565 H   0  0  0  0  0  0  0  0  0  0  0  0
   -4.1816    1.3328   -3.2316 H   0  0  0  0  0  0  0  0  0  0  0  0
   -3.4627    2.6381   -2.2542 H   0  0  0  0  0  0  0  0  0  0  0  0
   -0.7675   -1.3962   -2.2666 H   0  0  0  0  0  0  0  0  0  0  0  0
    2.3511   -0.2955    2.1923 H   0  0  0  0  0  0  0  0  0  0  0  0
   -0.8388   -0.7354    2.8219 H   0  0  0  0  0  0  0  0  0  0  0  0
    0.8747   -1.0453    3.2913 H   0  0  0  0  0  0  0  0  0  0  0  0
   -0.0636   -2.3743    2.5273 H   0  0  0  0  0  0  0  0  0  0  0  0
   -5.9162    1.9288   -1.8129 H   0  0  0  0  0  0  0  0  0  0  0  0
   -4.7678    2.0834   -0.3669 H   0  0  0  0  0  0  0  0  0  0  0  0
    1.8149    1.3163   -0.2278 H   0  0  0  0  0  0  0  0  0  0  0  0
    4.1868    0.7235    1.5154 H   0  0  0  0  0  0  0  0  0  0  0  0
    4.1742    1.8600    0.0556 H   0  0  0  0  0  0  0  0  0  0  0  0
    2.3991    1.9613    2.5665 H   0  0  0  0  0  0  0  0  0  0  0  0
    2.2427    3.0758    1.1484 H   0  0  0  0  0  0  0  0  0  0  0  0
    3.3020   -1.7225   -3.0325 H   0  0  0  0  0  0  0  0  0  0  0  0
    4.6741   -0.6091   -3.5397 H   0  0  0  0  0  0  0  0  0  0  0  0
    4.5433    2.7735    3.1421 H   0  0  0  0  0  0  0  0  0  0  0  0
    3.5534    4.2725    2.7209 H   0  0  0  0  0  0  0  0  0  0  0  0
    4.7449    3.6238    1.5228 H   0  0  0  0  0  0  0  0  0  0  0  0
    4.8016   -3.0052   -1.9521 H   0  0  0  0  0  0  0  0  0  0  0  0
    5.0922   -1.6334   -0.8527 H   0  0  0  0  0  0  0  0  0  0  0  0
    6.1189   -1.7824   -2.3401 H   0  0  0  0  0  0  0  0  0  0  0  0
  1  2  1  0
  1  3  1  0
  1  4  1  0
  2  5  1  0
  2  6  1  0
  3  7  1  0
  3  8  1  0
  4  9  1  0
  4 10  2  0
  5 11  1  0
  6 12  1  0
  8 13  1  0
  8 14  2  0
  9 15  1  0
  9 16  1  0
 11 17  1  0
 15 18  1  0
 18 19  1  0
 18 20  1  0
 19 21  1  0
 19 22  2  0
 20 23  1  0
 21 24  1  0
 23 25  1  0
 24 26  1  0
  5  7  1  0
 12 17  1  0
  2 27  1  1
  3 28  1  1
  5 29  1  1
  6 30  1  0
  6 31  1  0
  7 32  1  0
  7 33  1  0
  9 34  1  6
 11 35  1  0
 11 36  1  0
 12 37  1  0
 12 38  1  0
 13 39  1  0
 15 40  1  0
 16 41  1  0
 16 42  1  0
 16 43  1  0
 17 44  1  0
 17 45  1  0
 18 46  1  6
 20 47  1  0
 20 48  1  0
 23 49  1  0
 23 50  1  0
 24 51  1  0
 24 52  1  0
 25 53  1  0
 25 54  1  0
 25 55  1  0
 26 56  1  0
 26 57  1  0
 26 58  1  0
M  END

