46508249
     RDKit          3D

 16 15  0  0  1  0  0  0  0  0999 V2000
    2.4532   -0.5318   -1.1989 O   0  0  0  0  0  0  0  0  0  0  0  0
    1.7892    0.5942   -0.7429 C   0  0  0  0  0  0  0  0  0  0  0  0
   -1.6199   -0.6984    0.0517 C   0  0  0  0  0  0  0  0  0  0  0  0
   -0.4139   -0.3911   -0.7335 C   0  0  2  0  0  0  0  0  0  0  0  0
    0.5738    0.4086    0.0927 C   0  0  2  0  0  0  0  0  0  0  0  0
   -1.5844   -1.4315    1.2189 O   0  0  0  0  0  0  0  0  0  0  0  0
   -2.7298   -0.2780   -0.3535 O   0  0  0  0  0  0  0  0  0  0  0  0
    2.2489    1.7205   -1.0592 O   0  0  0  0  0  0  0  0  0  0  0  0
   -0.7157    0.3523   -1.8528 O   0  0  0  0  0  0  0  0  0  0  0  0
    0.0260    1.6257    0.4692 O   0  0  0  0  0  0  0  0  0  0  0  0
    3.1231   -1.0118   -0.6054 H   0  0  0  0  0  0  0  0  0  0  0  0
    0.0196   -1.3546   -1.0671 H   0  0  0  0  0  0  0  0  0  0  0  0
    0.8422   -0.1220    1.0412 H   0  0  0  0  0  0  0  0  0  0  0  0
   -2.3562   -2.0476    1.4479 H   0  0  0  0  0  0  0  0  0  0  0  0
   -1.4468    0.9867   -1.6783 H   0  0  0  0  0  0  0  0  0  0  0  0
   -0.2092    2.1788   -0.3158 H   0  0  0  0  0  0  0  0  0  0  0  0
  1  2  1  0
  2  8  2  0
  3  7  2  0
  3  4  1  0
  4  9  1  0
  2  5  1  0
  4  5  1  0
  5 10  1  0
  3  6  1  0
  1 11  1  0
  4 12  1  6
  5 13  1  1
  6 14  1  0
  9 15  1  0
 10 16  1  0
M  END

