46507254
     RDKit          3D

 26 25  0  0  0  0  0  0  0  0999 V2000
    0.2168    0.6137    0.6998 N   0  0  0  0  0  0  0  0  0  0  0  0
    2.4801    0.9741    0.1632 N   0  0  0  0  0  0  0  0  0  0  0  0
    1.3622   -1.2397   -0.1031 N   0  0  0  0  0  0  0  0  0  0  0  0
    4.7517    1.2991   -0.2164 N   0  0  0  0  0  0  0  0  0  0  0  0
    3.7283   -0.9354   -0.3327 N   0  0  0  0  0  0  0  0  0  0  0  0
   -2.1195    0.5467    0.2559 C   0  0  0  0  0  0  0  0  0  0  0  0
   -3.3853   -0.2801    0.3130 C   0  0  0  0  0  0  0  0  0  0  0  0
   -0.9395   -0.2558    0.7951 C   0  0  0  0  0  0  0  0  0  0  0  0
   -4.5010    0.5900   -0.2387 C   0  0  0  0  0  0  0  0  0  0  0  0
    1.3449    0.1292    0.2590 C   0  0  0  0  0  0  0  0  0  0  0  0
    3.6223    0.4626   -0.1206 C   0  0  0  0  0  0  0  0  0  0  0  0
    1.0842   -1.5542   -1.0485 H   0  0  0  0  0  0  0  0  0  0  0  0
    1.6611   -1.9425    0.5979 H   0  0  0  0  0  0  0  0  0  0  0  0
    5.5743    0.9999   -0.7710 H   0  0  0  0  0  0  0  0  0  0  0  0
    4.8115    2.2388    0.2561 H   0  0  0  0  0  0  0  0  0  0  0  0
    3.5085   -1.3352   -1.2670 H   0  0  0  0  0  0  0  0  0  0  0  0
    4.0255   -1.5479    0.4507 H   0  0  0  0  0  0  0  0  0  0  0  0
   -2.2593    1.4473    0.8847 H   0  0  0  0  0  0  0  0  0  0  0  0
   -1.9115    0.7867   -0.8065 H   0  0  0  0  0  0  0  0  0  0  0  0
   -3.5607   -0.5265    1.3855 H   0  0  0  0  0  0  0  0  0  0  0  0
   -3.2094   -1.1840   -0.2823 H   0  0  0  0  0  0  0  0  0  0  0  0
   -1.1434   -0.5449    1.8407 H   0  0  0  0  0  0  0  0  0  0  0  0
   -0.8306   -1.1469    0.1508 H   0  0  0  0  0  0  0  0  0  0  0  0
   -5.2585   -0.0765   -0.7064 H   0  0  0  0  0  0  0  0  0  0  0  0
   -4.1280    1.2691   -1.0428 H   0  0  0  0  0  0  0  0  0  0  0  0
   -4.9246    1.2126    0.5661 H   0  0  0  0  0  0  0  0  0  0  0  0
  1  8  1  0
  1 10  2  0
  2 10  1  0
  2 11  2  0
  3 10  1  0
  4 11  1  0
  5 11  1  0
  6  7  1  0
  6  8  1  0
  7  9  1  0
  3 12  1  0
  3 13  1  0
  4 14  1  0
  4 15  1  0
  5 16  1  0
  5 17  1  0
  6 18  1  0
  6 19  1  0
  7 20  1  0
  7 21  1  0
  8 22  1  0
  8 23  1  0
  9 24  1  0
  9 25  1  0
  9 26  1  0
M  END

