46504938
     RDKit          3D

 76 80  0  0  1  0  0  0  0  0999 V2000
   -2.7719   -3.0277   -0.1292 C   0  0  0  0  0  0  0  0  0  0  0  0
   -2.3719   -4.3428   -0.2761 C   0  0  0  0  0  0  0  0  0  0  0  0
   -1.8764   -4.8100   -1.4735 C   0  0  0  0  0  0  0  0  0  0  0  0
   -1.7846   -3.9410   -2.5313 C   0  0  0  0  0  0  0  0  0  0  0  0
   -2.1850   -2.6477   -2.3644 C   0  0  0  0  0  0  0  0  0  0  0  0
   -2.6914   -2.1142   -1.1888 C   0  0  0  0  0  0  0  0  0  0  0  0
   -3.1275   -0.7330   -1.0780 C   0  0  0  0  0  0  0  0  0  0  0  0
    1.2195    2.2636   -3.4711 C   0  0  0  0  0  0  0  0  0  0  0  0
    1.5285    2.3437   -4.8198 C   0  0  0  0  0  0  0  0  0  0  0  0
    2.7443    1.9274   -5.2634 C   0  0  0  0  0  0  0  0  0  0  0  0
    3.6738    1.4255   -4.3821 C   0  0  0  0  0  0  0  0  0  0  0  0
    3.3496    1.3525   -3.0420 C   0  0  0  0  0  0  0  0  0  0  0  0
    2.1083    1.7726   -2.5582 C   0  0  0  0  0  0  0  0  0  0  0  0
    1.7674    1.6799   -1.1199 C   0  0  0  0  0  0  0  0  0  0  0  0
   -2.1882    0.2784   -0.5459 C   0  0  2  0  0  0  0  0  0  0  0  0
   -1.1374    0.6187   -1.5630 C   0  0  2  0  0  0  0  0  0  0  0  0
   -1.6362    0.6544   -2.8547 O   0  0  0  0  0  0  0  0  0  0  0  0
    0.0955   -0.1764   -1.5368 C   0  0  1  0  0  0  0  0  0  0  0  0
    0.5803   -0.4159   -2.7972 O   0  0  0  0  0  0  0  0  0  0  0  0
    1.2209    0.3666   -0.7001 C   0  0  2  0  0  0  0  0  0  0  0  0
   -3.0070    1.3435    2.3876 C   0  0  0  0  0  0  0  0  0  0  0  0
   -3.9584    1.4324    3.3688 C   0  0  0  0  0  0  0  0  0  0  0  0
   -4.2462    2.6565    3.9199 C   0  0  0  0  0  0  0  0  0  0  0  0
   -3.5815    3.7838    3.4869 C   0  0  0  0  0  0  0  0  0  0  0  0
   -2.6109    3.7354    2.4949 C   0  0  0  0  0  0  0  0  0  0  0  0
   -2.3623    2.4769    1.9762 C   0  0  0  0  0  0  0  0  0  0  0  0
    4.4443   -2.0109    3.0458 C   0  0  0  0  0  0  0  0  0  0  0  0
    4.0167   -3.2002    2.4981 C   0  0  0  0  0  0  0  0  0  0  0  0
    2.9213   -3.2445    1.6617 C   0  0  0  0  0  0  0  0  0  0  0  0
    2.2473   -2.0519    1.3774 C   0  0  0  0  0  0  0  0  0  0  0  0
    2.6718   -0.8568    1.9239 C   0  0  0  0  0  0  0  0  0  0  0  0
    3.7737   -0.8366    2.7606 C   0  0  0  0  0  0  0  0  0  0  0  0
    0.8962    0.2463    0.6873 N   0  0  0  0  0  0  0  0  0  0  0  0
   -0.3911   -0.0480    1.2560 C   0  0  0  0  0  0  0  0  0  0  0  0
   -1.7022    0.0844    0.7700 N   0  0  0  0  0  0  0  0  0  0  0  0
   -0.2517   -0.5231    2.4449 O   0  0  0  0  0  0  0  0  0  0  0  0
    1.9818    0.4188    1.6416 C   0  0  0  0  0  0  0  0  0  0  0  0
   -2.7115    0.0146    1.8067 C   0  0  0  0  0  0  0  0  0  0  0  0
    5.5850   -2.0265    3.9051 N   0  0  0  0  0  0  0  0  0  0  0  0
   -1.9306    4.9047    2.0552 N   0  0  0  0  0  0  0  0  0  0  0  0
   -3.1536   -2.6847    0.8063 H   0  0  0  0  0  0  0  0  0  0  0  0
   -2.4314   -5.0589    0.5432 H   0  0  0  0  0  0  0  0  0  0  0  0
   -1.5585   -5.8485   -1.5958 H   0  0  0  0  0  0  0  0  0  0  0  0
   -1.3945   -4.2760   -3.5028 H   0  0  0  0  0  0  0  0  0  0  0  0
   -2.1005   -1.9950   -3.2214 H   0  0  0  0  0  0  0  0  0  0  0  0
   -3.3831   -0.3910   -2.1304 H   0  0  0  0  0  0  0  0  0  0  0  0
   -4.1216   -0.7402   -0.5765 H   0  0  0  0  0  0  0  0  0  0  0  0
    0.2319    2.6254   -3.2068 H   0  0  0  0  0  0  0  0  0  0  0  0
    0.8210    2.7338   -5.5441 H   0  0  0  0  0  0  0  0  0  0  0  0
    3.0258    1.9742   -6.3179 H   0  0  0  0  0  0  0  0  0  0  0  0
    4.6360    1.1012   -4.7668 H   0  0  0  0  0  0  0  0  0  0  0  0
    4.0952    0.9547   -2.3674 H   0  0  0  0  0  0  0  0  0  0  0  0
    1.1538    2.5503   -0.7829 H   0  0  0  0  0  0  0  0  0  0  0  0
    2.7531    1.8264   -0.5858 H   0  0  0  0  0  0  0  0  0  0  0  0
   -2.8317    1.2292   -0.4716 H   0  0  0  0  0  0  0  0  0  0  0  0
   -0.8300    1.6975   -1.3520 H   0  0  0  0  0  0  0  0  0  0  0  0
   -0.9724    0.3786   -3.5096 H   0  0  0  0  0  0  0  0  0  0  0  0
   -0.1446   -1.1812   -1.0725 H   0  0  0  0  0  0  0  0  0  0  0  0
    1.2474   -1.1566   -2.8209 H   0  0  0  0  0  0  0  0  0  0  0  0
    2.0701   -0.3797   -0.8635 H   0  0  0  0  0  0  0  0  0  0  0  0
   -4.5062    0.5691    3.7395 H   0  0  0  0  0  0  0  0  0  0  0  0
   -5.0066    2.7350    4.7055 H   0  0  0  0  0  0  0  0  0  0  0  0
   -3.8060    4.7621    3.9217 H   0  0  0  0  0  0  0  0  0  0  0  0
   -1.5955    2.4364    1.1924 H   0  0  0  0  0  0  0  0  0  0  0  0
    4.5334   -4.1324    2.7127 H   0  0  0  0  0  0  0  0  0  0  0  0
    2.5471   -4.1360    1.2106 H   0  0  0  0  0  0  0  0  0  0  0  0
    1.3871   -2.0305    0.7322 H   0  0  0  0  0  0  0  0  0  0  0  0
    4.1071    0.1101    3.1913 H   0  0  0  0  0  0  0  0  0  0  0  0
    1.5798    0.8499    2.5973 H   0  0  0  0  0  0  0  0  0  0  0  0
    2.6906    1.1533    1.2476 H   0  0  0  0  0  0  0  0  0  0  0  0
   -3.6532   -0.4474    1.4378 H   0  0  0  0  0  0  0  0  0  0  0  0
   -2.3800   -0.6352    2.6597 H   0  0  0  0  0  0  0  0  0  0  0  0
    5.5733   -1.6454    4.8708 H   0  0  0  0  0  0  0  0  0  0  0  0
    6.4598   -2.4417    3.5326 H   0  0  0  0  0  0  0  0  0  0  0  0
   -1.7593    5.6790    2.7323 H   0  0  0  0  0  0  0  0  0  0  0  0
   -1.5856    5.0406    1.0817 H   0  0  0  0  0  0  0  0  0  0  0  0
 20 14  1  0
  5  6  1  0
 11 12  2  0
  1  6  2  0
 12 13  1  0
 21 22  2  0
  8 13  2  0
 22 23  1  0
  1  2  1  0
 23 24  2  0
 13 14  1  0
 24 25  1  0
 15  7  1  0
 25 26  2  0
 21 26  1  0
  6  7  1  0
 27 28  2  0
  3  4  1  0
 28 29  1  0
 16 17  1  0
 29 30  2  0
 30 31  1  0
 31 32  2  0
 27 32  1  0
  8  9  1  0
  4  5  2  0
 33 34  1  0
 34 35  1  0
 20 33  1  0
 15 35  1  0
 18 20  1  0
 15 16  1  0
 16 18  1  0
 18 19  1  0
 34 36  2  0
  9 10  2  0
 33 37  1  0
 31 37  1  0
  2  3  2  0
 35 38  1  0
 21 38  1  0
 10 11  1  0
 27 39  1  0
 25 40  1  0
  1 41  1  0
  2 42  1  0
  3 43  1  0
  4 44  1  0
  5 45  1  0
  7 46  1  0
  7 47  1  0
  8 48  1  0
  9 49  1  0
 10 50  1  0
 11 51  1  0
 12 52  1  0
 14 53  1  0
 14 54  1  0
 15 55  1  1
 16 56  1  1
 17 57  1  0
 18 58  1  1
 19 59  1  0
 20 60  1  1
 22 61  1  0
 23 62  1  0
 24 63  1  0
 26 64  1  0
 28 65  1  0
 29 66  1  0
 30 67  1  0
 32 68  1  0
 37 69  1  0
 37 70  1  0
 38 71  1  0
 38 72  1  0
 39 73  1  0
 39 74  1  0
 40 75  1  0
 40 76  1  0
M  END

