46509076
     RDKit          3D

 75 78  0  0  1  0  0  0  0  0999 V2000
   -5.0933    1.0745    1.9562 C   0  0  0  0  0  0  0  0  0  0  0  0
   -6.0362    0.4258    2.9206 C   0  0  0  0  0  0  0  0  0  0  0  0
   -6.7597   -0.7295    2.3452 C   0  0  0  0  0  0  0  0  0  0  0  0
   -6.7643   -0.9096    0.9117 C   0  0  0  0  0  0  0  0  0  0  0  0
   -5.7151   -0.5184    0.2289 C   0  0  0  0  0  0  0  0  0  0  0  0
   -4.5503    0.0988    0.9491 C   0  0  1  0  0  0  0  0  0  0  0  0
   -3.7562    0.7121   -0.1389 C   0  0  2  0  0  0  0  0  0  0  0  0
   -5.7229   -0.6930   -1.2388 C   0  0  0  0  0  0  0  0  0  0  0  0
   -4.4064   -0.8675   -1.8894 C   0  0  0  0  0  0  0  0  0  0  0  0
   -3.2610   -0.4746   -0.9803 C   0  0  1  0  0  0  0  0  0  0  0  0
   -1.2967    1.0577    0.3736 C   0  0  0  0  0  0  0  0  0  0  0  0
   -2.6726    1.6499    0.1473 C   0  0  2  0  0  0  0  0  0  0  0  0
   -2.0527   -0.0579   -1.6698 C   0  0  1  0  0  0  0  0  0  0  0  0
   -0.8958    0.0686   -0.6588 C   0  0  1  0  0  0  0  0  0  0  0  0
    0.1167    0.6242   -1.6528 C   0  0  2  0  0  0  0  0  0  0  0  0
   -1.4074   -0.9892   -2.6488 C   0  0  0  0  0  0  0  0  0  0  0  0
    0.0027   -0.3751   -2.7663 C   0  0  0  0  0  0  0  0  0  0  0  0
   -7.3583   -1.5352    3.1066 O   0  0  0  0  0  0  0  0  0  0  0  0
   -3.8962   -1.0112    1.7149 C   0  0  0  0  0  0  0  0  0  0  0  0
   -0.4425   -1.2358   -0.1414 C   0  0  0  0  0  0  0  0  0  0  0  0
   -2.8829    2.5687    1.1467 O   0  0  0  0  0  0  0  0  0  0  0  0
    1.4244    0.8321   -1.0770 C   0  0  0  0  0  0  0  0  0  0  0  0
    1.6992    1.9987   -0.7288 O   0  0  0  0  0  0  0  0  0  0  0  0
    2.4640   -0.1788   -0.8650 C   0  0  0  0  0  0  0  0  0  0  0  0
    3.6133    0.4686   -0.2874 O   0  0  0  0  0  0  0  0  0  0  0  0
    4.7544   -0.2976    0.0164 C   0  0  0  0  0  0  0  0  0  0  0  0
    4.7246   -1.5210   -0.2301 O   0  0  0  0  0  0  0  0  0  0  0  0
    5.8870    0.4416    0.6072 C   0  0  0  0  0  0  0  0  0  0  0  0
    6.9915   -0.4203    0.8611 N   0  0  0  0  0  0  0  0  0  0  0  0
    7.6069   -0.8827   -0.3543 C   0  0  0  0  0  0  0  0  0  0  0  0
    8.3050    0.2437   -1.0937 C   0  0  0  0  0  0  0  0  0  0  0  0
    7.9412    0.1035    1.8073 C   0  0  0  0  0  0  0  0  0  0  0  0
    7.3178    0.1659    3.1884 C   0  0  0  0  0  0  0  0  0  0  0  0
   -0.3965    1.8878   -2.0479 O   0  0  0  0  0  0  0  0  0  0  0  0
   -5.5948    1.9424    1.4809 H   0  0  0  0  0  0  0  0  0  0  0  0
   -4.2553    1.4519    2.6185 H   0  0  0  0  0  0  0  0  0  0  0  0
   -6.8351    1.1522    3.2553 H   0  0  0  0  0  0  0  0  0  0  0  0
   -5.5741    0.0852    3.8701 H   0  0  0  0  0  0  0  0  0  0  0  0
   -7.6358   -1.3658    0.4275 H   0  0  0  0  0  0  0  0  0  0  0  0
   -4.5069    1.2683   -0.7899 H   0  0  0  0  0  0  0  0  0  0  0  0
   -6.3576   -1.5886   -1.5007 H   0  0  0  0  0  0  0  0  0  0  0  0
   -6.3058    0.1744   -1.6670 H   0  0  0  0  0  0  0  0  0  0  0  0
   -4.2386   -1.8887   -2.3152 H   0  0  0  0  0  0  0  0  0  0  0  0
   -4.3597   -0.1703   -2.7657 H   0  0  0  0  0  0  0  0  0  0  0  0
   -3.0939   -1.3605   -0.3437 H   0  0  0  0  0  0  0  0  0  0  0  0
   -1.1345    0.7237    1.4264 H   0  0  0  0  0  0  0  0  0  0  0  0
   -0.5795    1.9320    0.2770 H   0  0  0  0  0  0  0  0  0  0  0  0
   -2.5330    2.3055   -0.7744 H   0  0  0  0  0  0  0  0  0  0  0  0
   -2.1256    0.9223   -2.1882 H   0  0  0  0  0  0  0  0  0  0  0  0
   -1.3749   -2.0329   -2.3476 H   0  0  0  0  0  0  0  0  0  0  0  0
   -1.8561   -0.9210   -3.6619 H   0  0  0  0  0  0  0  0  0  0  0  0
    0.7103   -1.2058   -2.6137 H   0  0  0  0  0  0  0  0  0  0  0  0
    0.1403    0.1168   -3.7556 H   0  0  0  0  0  0  0  0  0  0  0  0
   -4.0610   -2.0255    1.2917 H   0  0  0  0  0  0  0  0  0  0  0  0
   -4.3553   -1.0819    2.7492 H   0  0  0  0  0  0  0  0  0  0  0  0
   -2.8342   -0.8847    1.8907 H   0  0  0  0  0  0  0  0  0  0  0  0
    0.2007   -1.0695    0.7775 H   0  0  0  0  0  0  0  0  0  0  0  0
    0.1169   -1.8844   -0.8112 H   0  0  0  0  0  0  0  0  0  0  0  0
   -1.3199   -1.8027    0.3212 H   0  0  0  0  0  0  0  0  0  0  0  0
   -3.6236    3.1632    0.8635 H   0  0  0  0  0  0  0  0  0  0  0  0
    2.8530   -0.5522   -1.8530 H   0  0  0  0  0  0  0  0  0  0  0  0
    2.2202   -1.0558   -0.2849 H   0  0  0  0  0  0  0  0  0  0  0  0
    6.1322    1.2759   -0.1169 H   0  0  0  0  0  0  0  0  0  0  0  0
    5.4970    0.9317    1.5436 H   0  0  0  0  0  0  0  0  0  0  0  0
    6.8795   -1.3562   -1.0168 H   0  0  0  0  0  0  0  0  0  0  0  0
    8.4032   -1.6362   -0.1374 H   0  0  0  0  0  0  0  0  0  0  0  0
    8.9117   -0.1554   -1.9128 H   0  0  0  0  0  0  0  0  0  0  0  0
    9.0101    0.7290   -0.3663 H   0  0  0  0  0  0  0  0  0  0  0  0
    7.6121    1.0028   -1.4683 H   0  0  0  0  0  0  0  0  0  0  0  0
    8.8540   -0.5251    1.8233 H   0  0  0  0  0  0  0  0  0  0  0  0
    8.2097    1.1397    1.5152 H   0  0  0  0  0  0  0  0  0  0  0  0
    7.1508    1.1871    3.5454 H   0  0  0  0  0  0  0  0  0  0  0  0
    6.3262   -0.3693    3.1834 H   0  0  0  0  0  0  0  0  0  0  0  0
    7.9682   -0.3771    3.9149 H   0  0  0  0  0  0  0  0  0  0  0  0
   -0.1223    2.0810   -2.9842 H   0  0  0  0  0  0  0  0  0  0  0  0
  1  2  1  0
  2  3  1  0
  3  4  1  0
  4  5  2  0
  1  6  1  0
  6  7  1  0
  5  6  1  0
  5  8  1  0
  8  9  1  0
  9 10  1  0
 10 13  1  0
  7 10  1  0
  7 12  1  0
 11 12  1  0
 11 14  1  0
 13 16  1  0
 13 14  1  0
 14 15  1  0
 16 17  1  0
 15 17  1  0
  3 18  2  0
  6 19  1  1
 14 20  1  1
 12 21  1  0
 15 22  1  0
 22 23  2  0
 22 24  1  0
 24 25  1  0
 25 26  1  0
 26 27  2  0
 26 28  1  0
 28 29  1  0
 29 30  1  0
 30 31  1  0
 29 32  1  0
 32 33  1  0
 15 34  1  6
  1 35  1  0
  1 36  1  0
  2 37  1  0
  2 38  1  0
  4 39  1  0
  7 40  1  6
  8 41  1  0
  8 42  1  0
  9 43  1  0
  9 44  1  0
 10 45  1  1
 11 46  1  0
 11 47  1  0
 12 48  1  6
 13 49  1  6
 16 50  1  0
 16 51  1  0
 17 52  1  0
 17 53  1  0
 19 54  1  0
 19 55  1  0
 19 56  1  0
 20 57  1  0
 20 58  1  0
 20 59  1  0
 21 60  1  0
 24 61  1  0
 24 62  1  0
 28 63  1  0
 28 64  1  0
 30 65  1  0
 30 66  1  0
 31 67  1  0
 31 68  1  0
 31 69  1  0
 32 70  1  0
 32 71  1  0
 33 72  1  0
 33 73  1  0
 33 74  1  0
 34 75  1  0
M  END

