46508202
     RDKit          3D

 66 70  0  0  1  0  0  0  0  0999 V2000
    3.2151    2.8545   -4.0178 F   0  0  0  0  0  0  0  0  0  0  0  0
    8.8048   -0.1938    2.7711 F   0  0  0  0  0  0  0  0  0  0  0  0
   -2.0930   -2.8652   -0.9567 O   0  0  0  0  0  0  0  0  0  0  0  0
   -4.4406   -0.2293   -0.9309 N   0  0  0  0  0  0  0  0  0  0  0  0
   -0.7131   -1.0205    0.5793 N   0  0  0  0  0  0  0  0  0  0  0  0
   -4.0547   -2.1704   -2.0202 N   0  0  0  0  0  0  0  0  0  0  0  0
   -3.1392   -0.6536   -0.4572 C   0  0  0  0  0  0  0  0  0  0  0  0
   -3.0705   -0.7863    1.0465 C   0  0  0  0  0  0  0  0  0  0  0  0
   -2.0530    0.2915   -0.9037 C   0  0  0  0  0  0  0  0  0  0  0  0
   -1.6730   -0.3923    1.4763 C   0  0  0  0  0  0  0  0  0  0  0  0
   -0.7178   -0.3852   -0.7207 C   0  0  0  0  0  0  0  0  0  0  0  0
   -2.9799   -1.9856   -1.1103 C   0  0  0  0  0  0  0  0  0  0  0  0
   -4.6171   -0.8518   -2.2290 C   0  0  0  0  0  0  0  0  0  0  0  0
    0.6283   -0.9032    1.1249 C   0  0  0  0  0  0  0  0  0  0  0  0
   -5.4069    0.6427   -0.3455 C   0  0  0  0  0  0  0  0  0  0  0  0
    1.5833   -1.5627    0.1871 C   0  0  0  0  0  0  0  0  0  0  0  0
    3.0225   -1.5283    0.6221 C   0  0  0  0  0  0  0  0  0  0  0  0
    3.5215   -0.1100    0.7743 C   0  0  0  0  0  0  0  0  0  0  0  0
   -5.0820    1.6616    0.5248 C   0  0  0  0  0  0  0  0  0  0  0  0
   -6.7631    0.4925   -0.6173 C   0  0  0  0  0  0  0  0  0  0  0  0
    3.4400    0.6687   -0.4835 C   0  0  0  0  0  0  0  0  0  0  0  0
    4.8996   -0.1023    1.3175 C   0  0  0  0  0  0  0  0  0  0  0  0
   -6.0391    2.4931    1.1017 C   0  0  0  0  0  0  0  0  0  0  0  0
   -7.7142    1.3072   -0.0539 C   0  0  0  0  0  0  0  0  0  0  0  0
   -7.3731    2.3177    0.8118 C   0  0  0  0  0  0  0  0  0  0  0  0
    3.1141    2.0199   -0.4694 C   0  0  0  0  0  0  0  0  0  0  0  0
    5.7966   -1.0516    0.8956 C   0  0  0  0  0  0  0  0  0  0  0  0
    3.6821    0.0905   -1.6954 C   0  0  0  0  0  0  0  0  0  0  0  0
    5.3360    0.8202    2.2391 C   0  0  0  0  0  0  0  0  0  0  0  0
    3.0397    2.7409   -1.6327 C   0  0  0  0  0  0  0  0  0  0  0  0
    7.1084   -1.0850    1.3816 C   0  0  0  0  0  0  0  0  0  0  0  0
    3.6079    0.8209   -2.8879 C   0  0  0  0  0  0  0  0  0  0  0  0
    6.6251    0.7986    2.7259 C   0  0  0  0  0  0  0  0  0  0  0  0
    3.2876    2.1424   -2.8570 C   0  0  0  0  0  0  0  0  0  0  0  0
    7.5371   -0.1700    2.2942 C   0  0  0  0  0  0  0  0  0  0  0  0
   -4.3924   -3.0535   -2.4617 H   0  0  0  0  0  0  0  0  0  0  0  0
   -3.8714   -0.3068    1.5978 H   0  0  0  0  0  0  0  0  0  0  0  0
   -3.1480   -1.8877    1.2593 H   0  0  0  0  0  0  0  0  0  0  0  0
   -2.0491    1.2256   -0.3018 H   0  0  0  0  0  0  0  0  0  0  0  0
   -2.2067    0.6229   -1.9553 H   0  0  0  0  0  0  0  0  0  0  0  0
   -1.4927   -0.8608    2.4799 H   0  0  0  0  0  0  0  0  0  0  0  0
   -1.5251    0.6818    1.5904 H   0  0  0  0  0  0  0  0  0  0  0  0
   -0.6277   -1.1774   -1.4869 H   0  0  0  0  0  0  0  0  0  0  0  0
    0.1207    0.3445   -0.8248 H   0  0  0  0  0  0  0  0  0  0  0  0
   -4.0050   -0.3241   -3.0030 H   0  0  0  0  0  0  0  0  0  0  0  0
   -5.6559   -0.9005   -2.5696 H   0  0  0  0  0  0  0  0  0  0  0  0
    0.7146   -1.2320    2.1634 H   0  0  0  0  0  0  0  0  0  0  0  0
    0.8312    0.2084    1.1141 H   0  0  0  0  0  0  0  0  0  0  0  0
    1.2749   -2.6395    0.0945 H   0  0  0  0  0  0  0  0  0  0  0  0
    1.5393   -1.1141   -0.8200 H   0  0  0  0  0  0  0  0  0  0  0  0
    3.5904   -2.0835   -0.1565 H   0  0  0  0  0  0  0  0  0  0  0  0
    3.1172   -2.0205    1.6142 H   0  0  0  0  0  0  0  0  0  0  0  0
    2.8062    0.3708    1.5095 H   0  0  0  0  0  0  0  0  0  0  0  0
   -4.0574    1.8733    0.7958 H   0  0  0  0  0  0  0  0  0  0  0  0
   -7.0747   -0.2977   -1.2953 H   0  0  0  0  0  0  0  0  0  0  0  0
   -5.7474    3.2915    1.7881 H   0  0  0  0  0  0  0  0  0  0  0  0
   -8.7545    1.1641   -0.2854 H   0  0  0  0  0  0  0  0  0  0  0  0
   -8.1472    2.9598    1.2533 H   0  0  0  0  0  0  0  0  0  0  0  0
    2.9246    2.4718    0.4809 H   0  0  0  0  0  0  0  0  0  0  0  0
    5.5606   -1.8193    0.1768 H   0  0  0  0  0  0  0  0  0  0  0  0
    3.9401   -0.9455   -1.7926 H   0  0  0  0  0  0  0  0  0  0  0  0
    4.6482    1.5703    2.5805 H   0  0  0  0  0  0  0  0  0  0  0  0
    2.7874    3.7998   -1.6589 H   0  0  0  0  0  0  0  0  0  0  0  0
    7.7943   -1.8489    1.0283 H   0  0  0  0  0  0  0  0  0  0  0  0
    3.8006    0.3589   -3.8488 H   0  0  0  0  0  0  0  0  0  0  0  0
    6.9855    1.5137    3.4489 H   0  0  0  0  0  0  0  0  0  0  0  0
  1 34  1  0
  2 35  1  0
  3 12  2  0
  4  7  1  0
  4 13  1  0
  4 15  1  0
  5 10  1  0
  5 11  1  0
  5 14  1  0
  6 12  1  0
  6 13  1  0
  7  8  1  0
  7  9  1  0
  7 12  1  0
  8 10  1  0
  9 11  1  0
 14 16  1  0
 15 19  2  0
 15 20  1  0
 16 17  1  0
 17 18  1  0
 18 21  1  0
 18 22  1  0
 19 23  1  0
 20 24  2  0
 21 26  2  0
 21 28  1  0
 22 27  2  0
 22 29  1  0
 23 25  2  0
 24 25  1  0
 26 30  1  0
 27 31  1  0
 28 32  2  0
 29 33  2  0
 30 34  2  0
 31 35  2  0
 32 34  1  0
 33 35  1  0
  6 36  1  0
  8 37  1  0
  8 38  1  0
  9 39  1  0
  9 40  1  0
 10 41  1  0
 10 42  1  0
 11 43  1  0
 11 44  1  0
 13 45  1  0
 13 46  1  0
 14 47  1  0
 14 48  1  0
 16 49  1  0
 16 50  1  0
 17 51  1  0
 17 52  1  0
 18 53  1  0
 19 54  1  0
 20 55  1  0
 23 56  1  0
 24 57  1  0
 25 58  1  0
 26 59  1  0
 27 60  1  0
 28 61  1  0
 29 62  1  0
 30 63  1  0
 31 64  1  0
 32 65  1  0
 33 66  1  0
M  END

