46507841
     RDKit          3D

 16 15  0  0  0  0  0  0  0  0999 V2000
    2.3822    0.6163    0.4719 N   0  0  0  0  0  0  0  0  0  0  0  0
    1.4991   -0.4212    0.0048 C   0  0  0  0  0  0  0  0  0  0  0  0
    0.0821    0.1538    0.0789 C   0  0  0  0  0  0  0  0  0  0  0  0
   -0.9682   -0.8256   -0.3921 C   0  0  0  0  0  0  0  0  0  0  0  0
   -2.2621   -0.1242   -0.2429 C   0  0  0  0  0  0  0  0  0  0  0  0
   -2.3632    1.2048   -0.5805 O   0  0  0  0  0  0  0  0  0  0  0  0
   -3.2482   -0.7375    0.1895 O   0  0  0  0  0  0  0  0  0  0  0  0
    2.6841    0.5080    1.4550 H   0  0  0  0  0  0  0  0  0  0  0  0
    3.0927    0.9418   -0.1791 H   0  0  0  0  0  0  0  0  0  0  0  0
    1.6771   -0.7811   -1.0001 H   0  0  0  0  0  0  0  0  0  0  0  0
    1.4926   -1.2833    0.7310 H   0  0  0  0  0  0  0  0  0  0  0  0
    0.0335    1.1118   -0.5064 H   0  0  0  0  0  0  0  0  0  0  0  0
   -0.0657    0.4429    1.1390 H   0  0  0  0  0  0  0  0  0  0  0  0
   -0.8725   -1.7417    0.1995 H   0  0  0  0  0  0  0  0  0  0  0  0
   -0.7436   -1.0241   -1.4636 H   0  0  0  0  0  0  0  0  0  0  0  0
   -2.4199    1.9593    0.0949 H   0  0  0  0  0  0  0  0  0  0  0  0
  1  2  1  0
  2  3  1  0
  3  4  1  0
  4  5  1  0
  5  6  1  0
  5  7  2  0
  1  8  1  0
  1  9  1  0
  2 10  1  0
  2 11  1  0
  3 12  1  0
  3 13  1  0
  4 14  1  0
  4 15  1  0
  6 16  1  0
M  END

