46508185
     RDKit          3D

100106  0  0  1  0  0  0  0  0999 V2000
   -5.8024    1.2726   -1.5287 C   0  0  0  0  0  0  0  0  0  0  0  0
    0.6029   -0.1066   -1.4172 C   0  0  0  0  0  0  0  0  0  0  0  0
    1.3458    1.0366   -1.9742 C   0  0  0  0  0  0  0  0  0  0  0  0
   -0.2000    0.2094   -0.1743 C   0  0  0  0  0  0  0  0  0  0  0  0
    2.3307    1.7668   -1.1725 C   0  0  0  0  0  0  0  0  0  0  0  0
   -1.2293    1.2641   -0.4029 C   0  0  0  0  0  0  0  0  0  0  0  0
    3.5363    1.1032   -0.6356 C   0  0  0  0  0  0  0  0  0  0  0  0
   -2.2630    0.9700   -1.4247 C   0  0  0  0  0  0  0  0  0  0  0  0
    3.3576   -0.0082    0.3446 C   0  0  0  0  0  0  0  0  0  0  0  0
   -7.0149    0.8676    2.9649 C   0  0  0  0  0  0  0  0  0  0  0  0
  -10.9362    0.5312    1.3510 C   0  0  0  0  0  0  0  0  0  0  0  0
   -5.9974   -0.0591    2.3376 C   0  0  0  0  0  0  0  0  0  0  0  0
   -9.9045   -0.1218    0.7290 C   0  0  0  0  0  0  0  0  0  0  0  0
   -7.7764   -0.8704   -0.9320 C   0  0  0  0  0  0  0  0  0  0  0  0
   -6.6062   -1.0544   -1.8271 C   0  0  0  0  0  0  0  0  0  0  0  0
   -9.4056    1.3802    2.9929 C   0  0  0  0  0  0  0  0  0  0  0  0
   -3.7708   -0.0243    0.2421 C   0  0  0  0  0  0  0  0  0  0  0  0
    5.9758   -2.0960    2.1507 C   0  0  0  0  0  0  0  0  0  0  0  0
    7.7310    1.4871   -2.7261 C   0  0  0  0  0  0  0  0  0  0  0  0
   10.1425   -0.0960    0.6530 C   0  0  0  0  0  0  0  0  0  0  0  0
   -8.3688    0.7093    2.3471 C   0  0  0  0  0  0  0  0  0  0  0  0
   -3.0768   -0.2611   -1.1055 C   0  0  1  0  0  0  0  0  0  0  0  0
  -10.6802    1.2786    2.4797 C   0  0  0  0  0  0  0  0  0  0  0  0
   -8.6143   -0.0389    1.2202 C   0  0  0  0  0  0  0  0  0  0  0  0
   -7.4900   -0.7613    0.5266 C   0  0  2  0  0  0  0  0  0  0  0  0
   -6.2265    0.0080    0.8453 C   0  0  2  0  0  0  0  0  0  0  0  0
   -5.1285   -0.5796    0.0274 C   0  0  1  0  0  0  0  0  0  0  0  0
    6.7867   -2.7654    1.0760 C   0  0  2  0  0  0  0  0  0  0  0  0
    4.7193   -0.5060    0.7802 C   0  0  0  0  0  0  0  0  0  0  0  0
    9.5543    1.4289   -0.8003 C   0  0  0  0  0  0  0  0  0  0  0  0
    7.9888   -3.4942    1.6657 C   0  0  2  0  0  0  0  0  0  0  0  0
    9.1058   -2.5584    1.3025 C   0  0  2  0  0  0  0  0  0  0  0  0
   -4.1538   -0.5282   -2.0944 C   0  0  1  0  0  0  0  0  0  0  0  0
    9.4279    2.5612   -1.5555 C   0  0  0  0  0  0  0  0  0  0  0  0
    8.7636    0.3062   -1.0031 C   0  0  0  0  0  0  0  0  0  0  0  0
    8.5852   -1.9199    0.0406 C   0  0  2  0  0  0  0  0  0  0  0  0
   -5.4323   -0.1718   -1.4236 C   0  0  2  0  0  0  0  0  0  0  0  0
   10.2124    3.7203   -1.3784 N   0  0  0  0  0  0  0  0  0  0  0  0
    8.4920    2.5736   -2.5345 N   0  0  0  0  0  0  0  0  0  0  0  0
    7.8439    0.3663   -1.9914 N   0  0  0  0  0  0  0  0  0  0  0  0
   10.3915    1.1516    0.2234 N   0  0  0  0  0  0  0  0  0  0  0  0
    9.1528   -0.6039   -0.0959 N   0  0  0  0  0  0  0  0  0  0  0  0
  -11.7044    1.9682    3.1553 O   0  0  0  0  0  0  0  0  0  0  0  0
    5.7187    0.0454    0.3042 O   0  0  0  0  0  0  0  0  0  0  0  0
    8.1909   -4.7193    1.0728 O   0  0  0  0  0  0  0  0  0  0  0  0
   10.2986   -3.2119    1.0146 O   0  0  0  0  0  0  0  0  0  0  0  0
   -3.9668    0.0877   -3.3191 O   0  0  0  0  0  0  0  0  0  0  0  0
    4.8054   -1.5358    1.6738 O   0  0  0  0  0  0  0  0  0  0  0  0
    7.2172   -1.9569    0.0791 O   0  0  0  0  0  0  0  0  0  0  0  0
   -5.2904    1.9450   -0.8406 H   0  0  0  0  0  0  0  0  0  0  0  0
   -5.5947    1.6248   -2.5716 H   0  0  0  0  0  0  0  0  0  0  0  0
   -6.9160    1.3996   -1.4005 H   0  0  0  0  0  0  0  0  0  0  0  0
    1.1031   -1.0721   -1.3348 H   0  0  0  0  0  0  0  0  0  0  0  0
   -0.2228   -0.3274   -2.1977 H   0  0  0  0  0  0  0  0  0  0  0  0
    0.5818    1.7221   -2.4477 H   0  0  0  0  0  0  0  0  0  0  0  0
    1.8958    0.6393   -2.8870 H   0  0  0  0  0  0  0  0  0  0  0  0
   -0.5874   -0.7443    0.2157 H   0  0  0  0  0  0  0  0  0  0  0  0
    0.5090    0.6010    0.5837 H   0  0  0  0  0  0  0  0  0  0  0  0
    2.7317    2.6039   -1.8549 H   0  0  0  0  0  0  0  0  0  0  0  0
    1.8594    2.3082   -0.2915 H   0  0  0  0  0  0  0  0  0  0  0  0
   -0.6670    2.1749   -0.7676 H   0  0  0  0  0  0  0  0  0  0  0  0
   -1.7136    1.6003    0.5361 H   0  0  0  0  0  0  0  0  0  0  0  0
    4.1716    1.8816   -0.1154 H   0  0  0  0  0  0  0  0  0  0  0  0
    4.1350    0.7280   -1.5340 H   0  0  0  0  0  0  0  0  0  0  0  0
   -2.9699    1.8496   -1.4220 H   0  0  0  0  0  0  0  0  0  0  0  0
   -1.8065    0.9261   -2.4143 H   0  0  0  0  0  0  0  0  0  0  0  0
    2.8614   -0.9005   -0.0388 H   0  0  0  0  0  0  0  0  0  0  0  0
    2.7949    0.3512    1.2308 H   0  0  0  0  0  0  0  0  0  0  0  0
   -6.6778    1.9182    2.8291 H   0  0  0  0  0  0  0  0  0  0  0  0
   -7.0421    0.6443    4.0398 H   0  0  0  0  0  0  0  0  0  0  0  0
  -11.9463    0.4710    0.9738 H   0  0  0  0  0  0  0  0  0  0  0  0
   -6.1285   -1.1044    2.6779 H   0  0  0  0  0  0  0  0  0  0  0  0
   -4.9621    0.3001    2.5092 H   0  0  0  0  0  0  0  0  0  0  0  0
  -10.0764   -0.7270   -0.1746 H   0  0  0  0  0  0  0  0  0  0  0  0
   -8.4396   -1.7771   -1.0615 H   0  0  0  0  0  0  0  0  0  0  0  0
   -8.4261   -0.0190   -1.2855 H   0  0  0  0  0  0  0  0  0  0  0  0
   -6.2651   -2.1029   -1.9193 H   0  0  0  0  0  0  0  0  0  0  0  0
   -6.9169   -0.7377   -2.8627 H   0  0  0  0  0  0  0  0  0  0  0  0
   -9.1907    1.9676    3.8827 H   0  0  0  0  0  0  0  0  0  0  0  0
   -3.2726   -0.6508    1.0362 H   0  0  0  0  0  0  0  0  0  0  0  0
   -3.7962    1.0269    0.5191 H   0  0  0  0  0  0  0  0  0  0  0  0
    6.6038   -1.2340    2.5359 H   0  0  0  0  0  0  0  0  0  0  0  0
    5.8015   -2.8088    2.9989 H   0  0  0  0  0  0  0  0  0  0  0  0
    6.9800    1.5066   -3.5174 H   0  0  0  0  0  0  0  0  0  0  0  0
   10.6714   -0.5812    1.4710 H   0  0  0  0  0  0  0  0  0  0  0  0
   -2.3884   -1.1192   -1.0723 H   0  0  0  0  0  0  0  0  0  0  0  0
   -7.4467   -1.7865    0.9683 H   0  0  0  0  0  0  0  0  0  0  0  0
   -6.4479    1.0779    0.5954 H   0  0  0  0  0  0  0  0  0  0  0  0
   -5.1818   -1.6836    0.0771 H   0  0  0  0  0  0  0  0  0  0  0  0
    6.1541   -3.5671    0.5953 H   0  0  0  0  0  0  0  0  0  0  0  0
    7.8817   -3.5915    2.7629 H   0  0  0  0  0  0  0  0  0  0  0  0
    9.2080   -1.8309    2.1443 H   0  0  0  0  0  0  0  0  0  0  0  0
   -4.1983   -1.6366   -2.3150 H   0  0  0  0  0  0  0  0  0  0  0  0
    8.9042   -2.5707   -0.8245 H   0  0  0  0  0  0  0  0  0  0  0  0
   10.2057    4.2161   -0.4714 H   0  0  0  0  0  0  0  0  0  0  0  0
   10.7899    4.0657   -2.1604 H   0  0  0  0  0  0  0  0  0  0  0  0
  -12.6489    1.8911    2.7734 H   0  0  0  0  0  0  0  0  0  0  0  0
    8.1155   -4.5959    0.0813 H   0  0  0  0  0  0  0  0  0  0  0  0
   10.3851   -3.3258    0.0299 H   0  0  0  0  0  0  0  0  0  0  0  0
   -3.6528    1.0094   -3.2749 H   0  0  0  0  0  0  0  0  0  0  0  0
  2  3  1  0
  2  4  1  0
  3  5  1  0
  4  6  1  0
  5  7  1  0
  6  8  1  0
  7  9  1  0
 10 12  1  0
 11 13  1  0
 14 15  1  0
 10 21  1  0
 16 21  2  0
 22  8  1  0
 17 22  1  0
 11 23  2  0
 16 23  1  0
 13 24  2  0
 21 24  1  0
 14 25  1  0
 24 25  1  0
 12 26  1  0
 25 26  1  0
 17 27  1  0
 26 27  1  0
 28 18  1  0
  9 29  1  0
 28 31  1  0
 31 32  1  0
 22 33  1  0
 30 34  2  0
 30 35  1  0
 32 36  1  0
 37  1  1  1
 15 37  1  0
 27 37  1  0
 33 37  1  0
 34 38  1  0
 19 39  2  0
 34 39  1  0
 19 40  1  0
 35 40  2  0
 20 41  2  0
 30 41  1  0
 20 42  1  0
 35 42  1  0
 36 42  1  0
 23 43  1  0
 29 44  2  0
 31 45  1  0
 32 46  1  0
 33 47  1  0
 18 48  1  0
 29 48  1  0
 28 49  1  0
 36 49  1  0
  1 50  1  0
  1 51  1  0
  1 52  1  0
  2 53  1  0
  2 54  1  0
  3 55  1  0
  3 56  1  0
  4 57  1  0
  4 58  1  0
  5 59  1  0
  5 60  1  0
  6 61  1  0
  6 62  1  0
  7 63  1  0
  7 64  1  0
  8 65  1  0
  8 66  1  0
  9 67  1  0
  9 68  1  0
 10 69  1  0
 10 70  1  0
 11 71  1  0
 12 72  1  0
 12 73  1  0
 13 74  1  0
 14 75  1  0
 14 76  1  0
 15 77  1  0
 15 78  1  0
 16 79  1  0
 17 80  1  0
 17 81  1  0
 18 82  1  0
 18 83  1  0
 19 84  1  0
 20 85  1  0
 22 86  1  1
 25 87  1  1
 26 88  1  6
 27 89  1  6
 28 90  1  6
 31 91  1  1
 32 92  1  1
 33 93  1  6
 36 94  1  6
 38 95  1  0
 38 96  1  0
 43 97  1  0
 45 98  1  0
 46 99  1  0
 47100  1  0
M  END

