46508118
     RDKit          3D

 81 80  0  0  1  0  0  0  0  0999 V2000
    1.3175   -1.0007    1.4387 C   0  0  0  0  0  0  0  0  0  0  0  0
    1.1791   -1.2618   -0.0197 C   0  0  2  0  0  0  0  0  0  0  0  0
    1.9928   -2.2876   -0.4816 O   0  0  0  0  0  0  0  0  0  0  0  0
    1.2225    0.4989    1.6186 C   0  0  2  0  0  0  0  0  0  0  0  0
    0.5435    0.9020    2.7348 O   0  0  0  0  0  0  0  0  0  0  0  0
    1.4428    0.0503   -0.6704 C   0  0  2  0  0  0  0  0  0  0  0  0
    2.9119    0.4033   -0.8076 C   0  0  0  0  0  0  0  0  0  0  0  0
    3.6413   -0.5786   -1.6072 C   0  0  0  0  0  0  0  0  0  0  0  0
    4.6348   -1.2564   -1.1300 C   0  0  0  0  0  0  0  0  0  0  0  0
    5.1134   -1.1075    0.2335 C   0  0  0  0  0  0  0  0  0  0  0  0
    6.5782   -0.6506    0.2909 C   0  0  0  0  0  0  0  0  0  0  0  0
    6.7533    0.6830   -0.3928 C   0  0  0  0  0  0  0  0  0  0  0  0
    9.0432    0.3024    0.2881 O   0  0  0  0  0  0  0  0  0  0  0  0
    8.1927    1.0388   -0.2860 C   0  0  0  0  0  0  0  0  0  0  0  0
    8.6820    2.2307   -0.8279 O   0  0  0  0  0  1  0  0  0  0  0  0
    0.7690    1.0189    0.3135 C   0  0  1  0  0  0  0  0  0  0  0  0
   -0.6631    1.1101    0.0619 C   0  0  0  0  0  0  0  0  0  0  0  0
   -1.6634    0.8201    0.8480 C   0  0  0  0  0  0  0  0  0  0  0  0
   -3.7972   -0.3173    0.6846 C   0  0  0  0  0  0  0  0  0  0  0  0
   -5.2382   -0.3964    0.3486 C   0  0  0  0  0  0  0  0  0  0  0  0
   -5.5583   -0.1721   -1.0958 C   0  0  0  0  0  0  0  0  0  0  0  0
   -7.0663   -0.3108   -1.3353 C   0  0  0  0  0  0  0  0  0  0  0  0
   -7.5373   -1.6862   -0.9505 C   0  0  0  0  0  0  0  0  0  0  0  0
   -3.1097    0.9848    0.3986 C   0  0  2  0  0  0  0  0  0  0  0  0
   -3.1173    1.1995   -0.9832 O   0  0  0  0  0  0  0  0  0  0  0  0
   -3.6870    2.1457    1.1575 C   0  0  0  0  0  0  0  0  0  0  0  0
   -2.2417    0.1715   -0.2502 O   0  0  0  0  0  0  0  0  0  0  0  0
   -1.0802   -0.3998   -0.7551 C   0  0  0  0  0  0  0  0  0  0  0  0
    0.1349   -0.0265    0.0590 C   0  0  0  0  0  0  0  0  0  0  0  0
    0.3067    1.4774    0.1480 C   0  0  0  0  0  0  0  0  0  0  0  0
   -0.8536    1.9925    0.6950 O   0  0  0  0  0  0  0  0  0  0  0  0
   -0.0807   -0.5026    1.4124 N   0  0  0  0  0  4  0  0  0  0  0  0
    1.3981   -0.5992   -0.4876 C   0  0  0  0  0  0  0  0  0  0  0  0
    1.3748   -2.0006   -0.5264 O   0  0  0  0  0  0  0  0  0  0  0  0
    0.5782   -1.5419    2.0627 H   0  0  0  0  0  0  0  0  0  0  0  0
    2.3150   -1.3585    1.7666 H   0  0  0  0  0  0  0  0  0  0  0  0
    0.1338   -1.5620   -0.3106 H   0  0  0  0  0  0  0  0  0  0  0  0
    1.7387   -2.4815   -1.4079 H   0  0  0  0  0  0  0  0  0  0  0  0
    2.2815    0.8933    1.7623 H   0  0  0  0  0  0  0  0  0  0  0  0
    0.2968    1.8377    2.6582 H   0  0  0  0  0  0  0  0  0  0  0  0
    0.9706    0.1454   -1.6749 H   0  0  0  0  0  0  0  0  0  0  0  0
    2.8784    1.3367   -1.4736 H   0  0  0  0  0  0  0  0  0  0  0  0
    3.3759    0.7651    0.0965 H   0  0  0  0  0  0  0  0  0  0  0  0
    3.2970   -0.7146   -2.6547 H   0  0  0  0  0  0  0  0  0  0  0  0
    5.1418   -1.9843   -1.7946 H   0  0  0  0  0  0  0  0  0  0  0  0
    4.4833   -0.6286    0.9671 H   0  0  0  0  0  0  0  0  0  0  0  0
    5.2035   -2.1770    0.6270 H   0  0  0  0  0  0  0  0  0  0  0  0
    7.1639   -1.4163   -0.2602 H   0  0  0  0  0  0  0  0  0  0  0  0
    6.9240   -0.6227    1.3426 H   0  0  0  0  0  0  0  0  0  0  0  0
    6.1571    1.4396    0.1476 H   0  0  0  0  0  0  0  0  0  0  0  0
    6.4896    0.5854   -1.4485 H   0  0  0  0  0  0  0  0  0  0  0  0
    1.1877    2.0606    0.1413 H   0  0  0  0  0  0  0  0  0  0  0  0
   -0.9524    1.4795   -0.9437 H   0  0  0  0  0  0  0  0  0  0  0  0
   -1.4791    0.4533    1.8299 H   0  0  0  0  0  0  0  0  0  0  0  0
   -3.1855   -1.1094    0.1751 H   0  0  0  0  0  0  0  0  0  0  0  0
   -3.6479   -0.5388    1.7755 H   0  0  0  0  0  0  0  0  0  0  0  0
   -5.7968    0.3928    0.9339 H   0  0  0  0  0  0  0  0  0  0  0  0
   -5.6635   -1.3994    0.6518 H   0  0  0  0  0  0  0  0  0  0  0  0
   -5.3002    0.8948   -1.3652 H   0  0  0  0  0  0  0  0  0  0  0  0
   -4.9661   -0.8315   -1.7484 H   0  0  0  0  0  0  0  0  0  0  0  0
   -7.5682    0.4610   -0.7295 H   0  0  0  0  0  0  0  0  0  0  0  0
   -7.2186   -0.1770   -2.4237 H   0  0  0  0  0  0  0  0  0  0  0  0
   -7.7716   -1.7624    0.1344 H   0  0  0  0  0  0  0  0  0  0  0  0
   -6.8616   -2.4823   -1.2750 H   0  0  0  0  0  0  0  0  0  0  0  0
   -8.5066   -1.8544   -1.4964 H   0  0  0  0  0  0  0  0  0  0  0  0
   -2.9115    2.1392   -1.2135 H   0  0  0  0  0  0  0  0  0  0  0  0
   -2.8485    2.8617    1.3404 H   0  0  0  0  0  0  0  0  0  0  0  0
   -4.0726    1.8333    2.1428 H   0  0  0  0  0  0  0  0  0  0  0  0
   -4.4460    2.7005    0.5661 H   0  0  0  0  0  0  0  0  0  0  0  0
   -3.0312   -0.4312   -0.3902 H   0  0  0  0  0  0  0  0  0  0  0  0
   -1.1265   -1.4805   -0.8828 H   0  0  0  0  0  0  0  0  0  0  0  0
   -0.9275    0.0473   -1.7724 H   0  0  0  0  0  0  0  0  0  0  0  0
    1.2137    1.6978    0.7167 H   0  0  0  0  0  0  0  0  0  0  0  0
    0.3690    1.8374   -0.9144 H   0  0  0  0  0  0  0  0  0  0  0  0
   -1.1862    2.7577    0.1558 H   0  0  0  0  0  0  0  0  0  0  0  0
   -0.5253   -1.4384    1.4006 H   0  0  0  0  0  0  0  0  0  0  0  0
   -0.7151    0.1754    1.8781 H   0  0  0  0  0  0  0  0  0  0  0  0
    0.8805   -0.5336    1.8584 H   0  0  0  0  0  0  0  0  0  0  0  0
    1.6037   -0.2698   -1.5231 H   0  0  0  0  0  0  0  0  0  0  0  0
    2.2381   -0.2218    0.1366 H   0  0  0  0  0  0  0  0  0  0  0  0
    2.2487   -2.2528   -0.9586 H   0  0  0  0  0  0  0  0  0  0  0  0
  1  2  1  0
  2  6  1  0
  1  4  1  0
  4 16  1  0
  6 16  1  0
  2  3  1  0
  4  5  1  0
  6  7  1  0
  7  8  1  0
  8  9  2  0
  9 10  1  0
 10 11  1  0
 11 12  1  0
 12 14  1  0
 13 14  2  0
 14 15  1  0
 16 17  1  0
 17 18  2  0
 18 24  1  0
 19 24  1  0
 19 20  1  0
 20 21  1  0
 21 22  1  0
 22 23  1  0
 24 25  1  6
 24 26  1  0
 27 28  1  0
 28 29  1  0
 29 30  1  0
 30 31  1  0
 29 32  1  0
 29 33  1  0
 33 34  1  0
  1 35  1  0
  1 36  1  0
  2 37  1  1
  3 38  1  0
  4 39  1  1
  5 40  1  0
  6 41  1  6
  7 42  1  0
  7 43  1  0
  8 44  1  0
  9 45  1  0
 10 46  1  0
 10 47  1  0
 11 48  1  0
 11 49  1  0
 12 50  1  0
 12 51  1  0
 16 52  1  6
 17 53  1  0
 18 54  1  0
 19 55  1  0
 19 56  1  0
 20 57  1  0
 20 58  1  0
 21 59  1  0
 21 60  1  0
 22 61  1  0
 22 62  1  0
 23 63  1  0
 23 64  1  0
 23 65  1  0
 25 66  1  0
 26 67  1  0
 26 68  1  0
 26 69  1  0
 27 70  1  0
 28 71  1  0
 28 72  1  0
 30 73  1  0
 30 74  1  0
 31 75  1  0
 32 76  1  0
 32 77  1  0
 32 78  1  0
 33 79  1  0
 33 80  1  0
 34 81  1  0
M  CHG  2  15  -1  32   1
M  END

