46505106
     RDKit          3D

 30 31  0  0  0  0  0  0  0  0999 V2000
   -1.1493   -0.5114   -1.1785 C   0  0  0  0  0  0  0  0  0  0  0  0
   -2.3507   -1.2784   -0.7486 C   0  0  0  0  0  0  0  0  0  0  0  0
   -0.5386    0.1642    0.0468 C   0  0  0  0  0  0  0  0  0  0  0  0
   -2.3399   -1.3232    0.7562 C   0  0  0  0  0  0  0  0  0  0  0  0
   -1.0823   -0.6054    1.1959 C   0  0  0  0  0  0  0  0  0  0  0  0
    0.9439    0.0410   -0.0814 C   0  0  0  0  0  0  0  0  0  0  0  0
    1.5542    0.4729   -1.2657 C   0  0  0  0  0  0  0  0  0  0  0  0
    1.7446   -0.4938    0.8928 C   0  0  0  0  0  0  0  0  0  0  0  0
    2.9169    0.3553   -1.4329 C   0  0  0  0  0  0  0  0  0  0  0  0
    3.1299   -0.6314    0.7534 C   0  0  0  0  0  0  0  0  0  0  0  0
    3.7036   -0.2044   -0.4139 C   0  0  0  0  0  0  0  0  0  0  0  0
   -1.0524    1.5583    0.0558 C   0  0  0  0  0  0  0  0  0  0  0  0
   -0.5547    2.2969    1.1758 N   0  0  0  0  0  0  0  0  0  0  0  0
   -0.3496   -1.1107   -1.6576 H   0  0  0  0  0  0  0  0  0  0  0  0
   -1.4811    0.3003   -1.9152 H   0  0  0  0  0  0  0  0  0  0  0  0
   -3.2712   -0.8343   -1.1494 H   0  0  0  0  0  0  0  0  0  0  0  0
   -2.3196   -2.3206   -1.2064 H   0  0  0  0  0  0  0  0  0  0  0  0
   -2.3406   -2.3984    1.1065 H   0  0  0  0  0  0  0  0  0  0  0  0
   -3.2113   -0.8802    1.2288 H   0  0  0  0  0  0  0  0  0  0  0  0
   -0.3993   -1.4158    1.5564 H   0  0  0  0  0  0  0  0  0  0  0  0
   -1.3211    0.0398    2.0940 H   0  0  0  0  0  0  0  0  0  0  0  0
    0.9492    0.8986   -2.0604 H   0  0  0  0  0  0  0  0  0  0  0  0
    1.3056   -0.8259    1.8018 H   0  0  0  0  0  0  0  0  0  0  0  0
    3.4153    0.6778   -2.3453 H   0  0  0  0  0  0  0  0  0  0  0  0
    3.6800   -1.0786    1.5945 H   0  0  0  0  0  0  0  0  0  0  0  0
    4.7694   -0.3023   -0.5446 H   0  0  0  0  0  0  0  0  0  0  0  0
   -0.8391    2.1374   -0.8876 H   0  0  0  0  0  0  0  0  0  0  0  0
   -2.1836    1.4900    0.0481 H   0  0  0  0  0  0  0  0  0  0  0  0
   -1.3818    2.6820    1.7011 H   0  0  0  0  0  0  0  0  0  0  0  0
    0.0537    3.1005    0.8794 H   0  0  0  0  0  0  0  0  0  0  0  0
  1  2  1  0
  1  3  1  0
  2  4  1  0
  3  5  1  0
  3  6  1  0
  3 12  1  0
  4  5  1  0
  6  7  2  0
  6  8  1  0
  7  9  1  0
  8 10  2  0
  9 11  2  0
 10 11  1  0
 12 13  1  0
  1 14  1  0
  1 15  1  0
  2 16  1  0
  2 17  1  0
  4 18  1  0
  4 19  1  0
  5 20  1  0
  5 21  1  0
  7 22  1  0
  8 23  1  0
  9 24  1  0
 10 25  1  0
 11 26  1  0
 12 27  1  0
 12 28  1  0
 13 29  1  0
 13 30  1  0
M  END

