46507862
     RDKit          3D

 18 17  0  0  1  0  0  0  0  0999 V2000
    2.9423   -0.5237    0.0958 C   0  0  0  0  0  0  0  0  0  0  0  0
   -0.2671    0.9110    0.3085 C   0  0  0  0  0  0  0  0  0  0  0  0
    0.9548    0.6322    0.7115 C   0  0  0  0  0  0  0  0  0  0  0  0
   -0.9671   -0.0857   -0.5422 C   0  0  1  0  0  0  0  0  0  0  0  0
   -2.1234   -0.6721    0.1628 C   0  0  0  0  0  0  0  0  0  0  0  0
   -1.4161    0.5698   -1.7497 N   0  0  0  0  0  0  0  0  0  0  0  0
   -3.2619   -0.5473   -0.3210 O   0  0  0  0  0  0  0  0  0  0  0  0
   -1.9397   -1.3474    1.3398 O   0  0  0  0  0  0  0  0  0  0  0  0
    1.5464   -0.5676    0.3357 O   0  0  0  0  0  0  0  0  0  0  0  0
    3.3219   -1.5168   -0.1954 H   0  0  0  0  0  0  0  0  0  0  0  0
    3.4196   -0.2316    1.0554 H   0  0  0  0  0  0  0  0  0  0  0  0
    3.1355    0.2600   -0.6577 H   0  0  0  0  0  0  0  0  0  0  0  0
   -0.7820    1.8178    0.5619 H   0  0  0  0  0  0  0  0  0  0  0  0
    1.4783    1.3592    1.3378 H   0  0  0  0  0  0  0  0  0  0  0  0
   -0.2832   -0.9012   -0.8583 H   0  0  0  0  0  0  0  0  0  0  0  0
   -2.3528    0.9902   -1.5915 H   0  0  0  0  0  0  0  0  0  0  0  0
   -0.7035    1.3219   -1.9637 H   0  0  0  0  0  0  0  0  0  0  0  0
   -2.7022   -1.4686    1.9702 H   0  0  0  0  0  0  0  0  0  0  0  0
  2  3  2  0
  2  4  1  0
  4  5  1  0
  4  6  1  0
  5  7  2  0
  5  8  1  0
  1  9  1  0
  3  9  1  0
  1 10  1  0
  1 11  1  0
  1 12  1  0
  2 13  1  0
  3 14  1  0
  4 15  1  6
  6 16  1  0
  6 17  1  0
  8 18  1  0
M  END

