46505018
     RDKit          3D

 27 29  0  0  0  0  0  0  0  0999 V2000
   -0.0733   -1.6970    1.5900 O   0  0  0  0  0  0  0  0  0  0  0  0
    0.1476    2.2674   -0.9115 O   0  0  0  0  0  0  0  0  0  0  0  0
   -0.3098    0.6295    0.8221 C   0  0  0  0  0  0  0  0  0  0  0  0
    0.4153   -0.6512    1.0486 C   0  0  0  0  0  0  0  0  0  0  0  0
    0.5329    1.3089   -0.1888 C   0  0  0  0  0  0  0  0  0  0  0  0
    1.7654   -0.4640    0.5353 C   0  0  0  0  0  0  0  0  0  0  0  0
    1.8450    0.6863   -0.1940 C   0  0  0  0  0  0  0  0  0  0  0  0
   -1.6481    0.2892    0.3019 C   0  0  0  0  0  0  0  0  0  0  0  0
    2.8769   -1.2991    0.7197 C   0  0  0  0  0  0  0  0  0  0  0  0
    3.0723    1.0283   -0.7660 C   0  0  0  0  0  0  0  0  0  0  0  0
   -1.8166   -0.3775   -0.8777 C   0  0  0  0  0  0  0  0  0  0  0  0
   -2.7529    0.6611    1.0386 C   0  0  0  0  0  0  0  0  0  0  0  0
    4.0658   -0.9571    0.1590 C   0  0  0  0  0  0  0  0  0  0  0  0
    4.1614    0.2032   -0.5812 C   0  0  0  0  0  0  0  0  0  0  0  0
   -3.0495   -0.7150   -1.3999 C   0  0  0  0  0  0  0  0  0  0  0  0
   -4.0106    0.3303    0.5301 C   0  0  0  0  0  0  0  0  0  0  0  0
   -4.1581   -0.3454   -0.6672 C   0  0  0  0  0  0  0  0  0  0  0  0
   -0.3618    1.1595    1.7721 H   0  0  0  0  0  0  0  0  0  0  0  0
    2.7750   -2.2077    1.3073 H   0  0  0  0  0  0  0  0  0  0  0  0
    3.1133    1.9336   -1.3337 H   0  0  0  0  0  0  0  0  0  0  0  0
   -0.9053   -0.6503   -1.4247 H   0  0  0  0  0  0  0  0  0  0  0  0
   -2.6379    1.1879    1.9719 H   0  0  0  0  0  0  0  0  0  0  0  0
    4.9649   -1.5716    0.2708 H   0  0  0  0  0  0  0  0  0  0  0  0
    5.1120    0.4671   -1.0236 H   0  0  0  0  0  0  0  0  0  0  0  0
   -3.1040   -1.2445   -2.3420 H   0  0  0  0  0  0  0  0  0  0  0  0
   -4.8705    0.6156    1.0960 H   0  0  0  0  0  0  0  0  0  0  0  0
   -5.1494   -0.5876   -1.0348 H   0  0  0  0  0  0  0  0  0  0  0  0
  1  4  2  0
  2  5  2  0
  3  4  1  0
  3  5  1  0
  3  8  1  0
  4  6  1  0
  5  7  1  0
  6  7  2  0
  6  9  1  0
  7 10  1  0
  8 11  2  0
  8 12  1  0
  9 13  2  0
 10 14  2  0
 11 15  1  0
 12 16  2  0
 13 14  1  0
 15 17  2  0
 16 17  1  0
  3 18  1  0
  9 19  1  0
 10 20  1  0
 11 21  1  0
 12 22  1  0
 13 23  1  0
 14 24  1  0
 15 25  1  0
 16 26  1  0
 17 27  1  0
M  END

