46504627
     RDKit          3D

 10  9  0  0  0  0  0  0  0  0999 V2000
    1.2764   -0.1811   -0.2611 C   0  0  0  0  0  0  0  0  0  0  0  0
   -0.0080    0.0977    0.3342 C   0  0  0  0  0  0  0  0  0  0  0  0
   -1.2068   -0.4556   -0.2382 C   0  0  0  0  0  0  0  0  0  0  0  0
    2.4700    0.3475    0.2778 O   0  0  0  0  0  0  0  0  0  0  0  0
    1.3153   -0.9134   -1.2824 O   0  0  0  0  0  0  0  0  0  0  0  0
   -2.4461   -0.1914    0.3296 O   0  0  0  0  0  0  0  0  0  0  0  0
   -1.1228   -1.1794   -1.2553 O   0  0  0  0  0  0  0  0  0  0  0  0
   -0.0808    0.8220    1.3502 O   0  0  0  0  0  0  0  0  0  0  0  0
    2.8609    1.1447   -0.2440 H   0  0  0  0  0  0  0  0  0  0  0  0
   -3.0581    0.5090   -0.0730 H   0  0  0  0  0  0  0  0  0  0  0  0
  1  2  1  0
  1  5  2  0
  1  4  1  0
  2  3  1  0
  2  8  2  0
  3  7  2  0
  3  6  1  0
  4  9  1  0
  6 10  1  0
M  END

