46507200
     RDKit          3D

 14 15  0  0  0  0  0  0  0  0999 V2000
    0.1651    2.7345   -0.1205 O   0  0  0  0  0  0  0  0  0  0  0  0
   -1.7534    0.5547   -0.0447 N   0  0  0  0  0  0  0  0  0  0  0  0
    1.3153   -1.1286    0.0654 N   0  0  0  0  0  0  0  0  0  0  0  0
   -1.1089   -1.5632    0.0574 N   0  0  0  0  0  0  0  0  0  0  0  0
    1.8488    1.1778   -0.0318 N   0  0  0  0  0  0  0  0  0  0  0  0
   -0.4057    0.5230   -0.0280 C   0  0  0  0  0  0  0  0  0  0  0  0
    0.0062   -0.8044    0.0361 C   0  0  0  0  0  0  0  0  0  0  0  0
    0.5497    1.5266   -0.0621 C   0  0  0  0  0  0  0  0  0  0  0  0
   -2.1570   -0.7286    0.0082 C   0  0  0  0  0  0  0  0  0  0  0  0
    2.2091   -0.1159    0.0302 C   0  0  0  0  0  0  0  0  0  0  0  0
   -2.3558    1.4065   -0.0896 H   0  0  0  0  0  0  0  0  0  0  0  0
    1.6157   -2.1274    0.1135 H   0  0  0  0  0  0  0  0  0  0  0  0
   -3.1887   -1.0395    0.0104 H   0  0  0  0  0  0  0  0  0  0  0  0
    3.2595   -0.4155    0.0555 H   0  0  0  0  0  0  0  0  0  0  0  0
  1  8  2  0
  2  6  1  0
  2  9  1  0
  3  7  1  0
  3 10  1  0
  4  7  1  0
  4  9  2  0
  5  8  1  0
  5 10  2  0
  6  7  2  0
  6  8  1  0
  2 11  1  0
  3 12  1  0
  9 13  1  0
 10 14  1  0
M  END

