46507480
     RDKit          3D

 15 14  0  0  0  0  0  0  0  0999 V2000
   -0.7375    1.3075    0.1085 C   0  0  0  0  0  0  0  0  0  0  0  0
    0.0149    0.0564   -0.2057 C   0  0  0  0  0  0  0  0  0  0  0  0
   -0.7617   -1.1345    0.2641 C   0  0  0  0  0  0  0  0  0  0  0  0
    1.4132    0.0462    0.3310 C   0  0  0  0  0  0  0  0  0  0  0  0
    0.0946   -0.0367   -1.6117 O   0  0  0  0  0  0  0  0  0  0  0  0
   -1.8074    1.1315   -0.1970 H   0  0  0  0  0  0  0  0  0  0  0  0
   -0.7784    1.5473    1.1842 H   0  0  0  0  0  0  0  0  0  0  0  0
   -0.4037    2.1786   -0.5124 H   0  0  0  0  0  0  0  0  0  0  0  0
   -0.5780   -1.3228    1.3327 H   0  0  0  0  0  0  0  0  0  0  0  0
   -0.5923   -1.9975   -0.3908 H   0  0  0  0  0  0  0  0  0  0  0  0
   -1.8500   -0.8683    0.1812 H   0  0  0  0  0  0  0  0  0  0  0  0
    1.4452    0.0454    1.4309 H   0  0  0  0  0  0  0  0  0  0  0  0
    1.8745   -0.9274    0.0053 H   0  0  0  0  0  0  0  0  0  0  0  0
    2.0242    0.8322   -0.1383 H   0  0  0  0  0  0  0  0  0  0  0  0
    0.6425   -0.8577   -1.7821 H   0  0  0  0  0  0  0  0  0  0  0  0
  2  4  1  0
  2  5  1  0
  1  2  1  0
  2  3  1  0
  1  6  1  0
  1  7  1  0
  1  8  1  0
  3  9  1  0
  3 10  1  0
  3 11  1  0
  4 12  1  0
  4 13  1  0
  4 14  1  0
  5 15  1  0
M  END

