46504802
     RDKit          3D

 19 19  0  0  1  0  0  0  0  0999 V2000
    2.5269    0.9322    0.3306 N   0  0  0  0  0  0  0  0  0  0  0  0
    1.6552    0.2365   -0.5879 C   0  0  0  0  0  0  0  0  0  0  0  0
    0.1989    0.5840   -0.3638 C   0  0  2  0  0  0  0  0  0  0  0  0
   -0.2751    0.2368    1.0112 C   0  0  0  0  0  0  0  0  0  0  0  0
   -1.7597    0.0440    0.8076 C   0  0  0  0  0  0  0  0  0  0  0  0
   -1.9409   -0.0745   -0.6753 C   0  0  0  0  0  0  0  0  0  0  0  0
   -0.6263   -0.2248   -1.2168 N   0  0  0  0  0  0  0  0  0  0  0  0
    2.5824    0.3757    1.2205 H   0  0  0  0  0  0  0  0  0  0  0  0
    3.4798    0.9347   -0.1035 H   0  0  0  0  0  0  0  0  0  0  0  0
    1.9088    0.6009   -1.6113 H   0  0  0  0  0  0  0  0  0  0  0  0
    1.8340   -0.8391   -0.5772 H   0  0  0  0  0  0  0  0  0  0  0  0
    0.0072    1.6484   -0.5899 H   0  0  0  0  0  0  0  0  0  0  0  0
   -0.1487    1.0690    1.7280 H   0  0  0  0  0  0  0  0  0  0  0  0
    0.2343   -0.6643    1.3724 H   0  0  0  0  0  0  0  0  0  0  0  0
   -2.0903   -0.8290    1.3796 H   0  0  0  0  0  0  0  0  0  0  0  0
   -2.3329    0.9180    1.1800 H   0  0  0  0  0  0  0  0  0  0  0  0
   -2.4079    0.8495   -1.1029 H   0  0  0  0  0  0  0  0  0  0  0  0
   -2.5224   -0.9847   -0.9418 H   0  0  0  0  0  0  0  0  0  0  0  0
   -0.3235   -1.2133   -1.2594 H   0  0  0  0  0  0  0  0  0  0  0  0
  1  2  1  0
  3  2  1  0
  3  4  1  0
  4  5  1  0
  5  6  1  0
  6  7  1  0
  3  7  1  0
  1  8  1  0
  1  9  1  0
  2 10  1  0
  2 11  1  0
  3 12  1  6
  4 13  1  0
  4 14  1  0
  5 15  1  0
  5 16  1  0
  6 17  1  0
  6 18  1  0
  7 19  1  0
M  END

