46506079
     RDKit          3D

 27 27  0  0  1  0  0  0  0  0999 V2000
   -1.7872   -1.9308   -1.3534 O   0  0  0  0  0  0  0  0  0  0  0  0
   -1.5208   -2.0349    0.8879 O   0  0  0  0  0  0  0  0  0  0  0  0
    4.5882   -0.5111    0.7342 O   0  0  0  0  0  0  0  0  0  0  0  0
   -1.5890    0.5968    1.3008 N   0  0  0  0  0  0  0  0  0  0  0  0
   -1.7299    0.1787   -0.0642 C   0  0  2  0  0  0  0  0  0  0  0  0
   -0.6670    0.8217   -0.9267 C   0  0  0  0  0  0  0  0  0  0  0  0
    0.7015    0.4700   -0.4977 C   0  0  0  0  0  0  0  0  0  0  0  0
   -3.0708    0.6666   -0.5901 C   0  0  0  0  0  0  0  0  0  0  0  0
   -1.6713   -1.2995   -0.1223 C   0  0  0  0  0  0  0  0  0  0  0  0
    1.3854    1.2309    0.4266 C   0  0  0  0  0  0  0  0  0  0  0  0
    1.3497   -0.6419   -1.0110 C   0  0  0  0  0  0  0  0  0  0  0  0
    2.6629    0.8903    0.8178 C   0  0  0  0  0  0  0  0  0  0  0  0
    2.6330   -0.9841   -0.6181 C   0  0  0  0  0  0  0  0  0  0  0  0
    3.3102   -0.2176    0.3071 C   0  0  0  0  0  0  0  0  0  0  0  0
   -2.2659   -2.8230   -1.4000 H   0  0  0  0  0  0  0  0  0  0  0  0
    5.0979   -1.2942    0.3996 H   0  0  0  0  0  0  0  0  0  0  0  0
   -2.0817    0.0110    1.9833 H   0  0  0  0  0  0  0  0  0  0  0  0
   -1.6825    1.6153    1.4431 H   0  0  0  0  0  0  0  0  0  0  0  0
   -0.8513    1.9116   -0.9549 H   0  0  0  0  0  0  0  0  0  0  0  0
   -0.8244    0.4647   -1.9793 H   0  0  0  0  0  0  0  0  0  0  0  0
   -3.1168    1.7667   -0.4517 H   0  0  0  0  0  0  0  0  0  0  0  0
   -3.0946    0.4863   -1.6911 H   0  0  0  0  0  0  0  0  0  0  0  0
   -3.8746    0.1362   -0.0642 H   0  0  0  0  0  0  0  0  0  0  0  0
    0.8896    2.1136    0.8436 H   0  0  0  0  0  0  0  0  0  0  0  0
    0.8595   -1.2622   -1.7303 H   0  0  0  0  0  0  0  0  0  0  0  0
    3.1946    1.4961    1.5472 H   0  0  0  0  0  0  0  0  0  0  0  0
    3.1554   -1.8572   -1.0144 H   0  0  0  0  0  0  0  0  0  0  0  0
  1  9  1  0
  2  9  2  0
  3 14  1  0
  5  4  1  0
  5  6  1  0
  5  8  1  0
  5  9  1  1
  6  7  1  0
  7 10  2  0
  7 11  1  0
 10 12  1  0
 11 13  2  0
 12 14  2  0
 13 14  1  0
  1 15  1  0
  3 16  1  0
  4 17  1  0
  4 18  1  0
  6 19  1  0
  6 20  1  0
  8 21  1  0
  8 22  1  0
  8 23  1  0
 10 24  1  0
 11 25  1  0
 12 26  1  0
 13 27  1  0
M  END

