46508999
     RDKit          3D

134133  0  0  1  0  0  0  0  0999 V2000
   12.1737    3.6166    2.2027 C   0  0  0  0  0  0  0  0  0  0  0  0
   14.1822    2.3066    2.6625 C   0  0  0  0  0  0  0  0  0  0  0  0
  -14.9623    1.3512   -1.6823 C   0  0  0  0  0  0  0  0  0  0  0  0
  -15.0974    2.8153    0.2724 C   0  0  0  0  0  0  0  0  0  0  0  0
   11.0611   -0.7541    0.2735 C   0  0  0  0  0  0  0  0  0  0  0  0
  -10.0586    0.8886   -1.1254 C   0  0  0  0  0  0  0  0  0  0  0  0
    7.0766   -1.3430   -1.4365 C   0  0  0  0  0  0  0  0  0  0  0  0
   -7.0719    1.7402    3.0143 C   0  0  0  0  0  0  0  0  0  0  0  0
    4.1346   -1.2597   -4.0785 C   0  0  0  0  0  0  0  0  0  0  0  0
   -3.5075   -2.1159    1.3318 C   0  0  0  0  0  0  0  0  0  0  0  0
   11.7925    2.2525   -0.3099 C   0  0  0  0  0  0  0  0  0  0  0  0
  -12.8809    0.8046    0.3440 C   0  0  0  0  0  0  0  0  0  0  0  0
    8.2198    1.5117   -0.7995 C   0  0  0  0  0  0  0  0  0  0  0  0
   -8.4581   -0.3213    1.3246 C   0  0  0  0  0  0  0  0  0  0  0  0
    4.1542   -0.2995   -0.9576 C   0  0  0  0  0  0  0  0  0  0  0  0
   -4.3548    0.5273    2.8114 C   0  0  0  0  0  0  0  0  0  0  0  0
   12.7123    1.7374    0.7356 C   0  0  0  0  0  0  0  0  0  0  0  0
  -12.8454    2.0107   -0.5096 C   0  0  0  0  0  0  0  0  0  0  0  0
   11.2047    1.2470   -1.1831 C   0  0  0  0  0  0  0  0  0  0  0  0
  -11.5789    0.3336    0.8405 C   0  0  0  0  0  0  0  0  0  0  0  0
    9.0871    0.6208   -0.0041 C   0  0  0  0  0  0  0  0  0  0  0  0
   -9.4875   -0.9439    0.4898 C   0  0  0  0  0  0  0  0  0  0  0  0
    7.5877    1.0761   -2.0277 C   0  0  0  0  0  0  0  0  0  0  0  0
   -7.5610    0.7183    0.7417 C   0  0  0  0  0  0  0  0  0  0  0  0
    5.3771    0.4149   -1.1744 C   0  0  0  0  0  0  0  0  0  0  0  0
   -5.5231    0.0335    2.0359 C   0  0  0  0  0  0  0  0  0  0  0  0
    3.1168   -0.7261   -1.8578 C   0  0  0  0  0  0  0  0  0  0  0  0
   -3.3295   -0.4589    3.2088 C   0  0  0  0  0  0  0  0  0  0  0  0
    3.4689   -3.1114   -2.6257 C   0  0  0  0  0  0  0  0  0  0  0  0
   -1.8217   -0.3320    1.2293 C   0  0  0  0  0  0  0  0  0  0  0  0
    2.7582   -3.9215   -1.6407 C   0  0  0  0  0  0  0  0  0  0  0  0
   -1.0269   -1.1956    0.2704 C   0  0  0  0  0  0  0  0  0  0  0  0
   -0.0456   -4.3306    0.4779 C   0  0  0  0  0  0  0  0  0  0  0  0
    1.9829   -2.9614    0.4323 C   0  0  0  0  0  0  0  0  0  0  0  0
   13.3253    2.8828    1.5541 C   0  0  0  0  0  0  0  0  0  0  0  0
  -14.2719    2.4326   -0.9215 C   0  0  0  0  0  0  0  0  0  0  0  0
   10.3441    0.1533   -0.6902 C   0  0  2  0  0  0  0  0  0  0  0  0
  -10.5542   -0.1105   -0.1510 C   0  0  2  0  0  0  0  0  0  0  0  0
    6.5431   -0.0467   -1.9670 C   0  0  2  0  0  0  0  0  0  0  0  0
   -6.5227    1.1603    1.7684 C   0  0  2  0  0  0  0  0  0  0  0  0
    3.1872   -1.6898   -2.9470 C   0  0  2  0  0  0  0  0  0  0  0  0
   -2.6218   -1.2410    2.1717 C   0  0  2  0  0  0  0  0  0  0  0  0
    0.4869   -2.9092    0.1637 C   0  0  2  0  0  0  0  0  0  0  0  0
    0.2385   -4.5422    1.8304 O   0  0  0  0  0  0  0  0  0  0  0  0
    2.6208   -3.8003   -0.3652 O   0  0  0  0  0  0  0  0  0  0  0  0
   -0.1831   -2.0440    0.9886 O   0  0  0  0  0  0  0  0  0  0  0  0
   11.7036    4.3735    1.5688 H   0  0  0  0  0  0  0  0  0  0  0  0
   11.4145    2.8245    2.4544 H   0  0  0  0  0  0  0  0  0  0  0  0
   12.4653    4.0690    3.1796 H   0  0  0  0  0  0  0  0  0  0  0  0
   14.6476    1.3509    2.2896 H   0  0  0  0  0  0  0  0  0  0  0  0
   13.6199    2.0684    3.5662 H   0  0  0  0  0  0  0  0  0  0  0  0
   15.0412    2.9700    2.9029 H   0  0  0  0  0  0  0  0  0  0  0  0
  -14.3535    0.8923   -2.4805 H   0  0  0  0  0  0  0  0  0  0  0  0
  -15.8284    1.8331   -2.2089 H   0  0  0  0  0  0  0  0  0  0  0  0
  -15.4279    0.5810   -1.0081 H   0  0  0  0  0  0  0  0  0  0  0  0
  -15.9518    3.4336   -0.1263 H   0  0  0  0  0  0  0  0  0  0  0  0
  -14.5169    3.5043    0.9332 H   0  0  0  0  0  0  0  0  0  0  0  0
  -15.4796    1.9532    0.8547 H   0  0  0  0  0  0  0  0  0  0  0  0
   10.6914   -0.6246    1.3169 H   0  0  0  0  0  0  0  0  0  0  0  0
   10.6805   -1.8154    0.0316 H   0  0  0  0  0  0  0  0  0  0  0  0
   12.1410   -0.8112    0.1504 H   0  0  0  0  0  0  0  0  0  0  0  0
  -10.5207    0.7797   -2.1558 H   0  0  0  0  0  0  0  0  0  0  0  0
  -10.0295    1.9263   -0.8336 H   0  0  0  0  0  0  0  0  0  0  0  0
   -8.9770    0.5779   -1.3554 H   0  0  0  0  0  0  0  0  0  0  0  0
    8.1342   -1.5248   -1.5313 H   0  0  0  0  0  0  0  0  0  0  0  0
    6.7583   -1.5763   -0.3933 H   0  0  0  0  0  0  0  0  0  0  0  0
    6.6241   -2.1747   -2.0851 H   0  0  0  0  0  0  0  0  0  0  0  0
   -7.0363    0.9944    3.8646 H   0  0  0  0  0  0  0  0  0  0  0  0
   -6.4913    2.6103    3.3996 H   0  0  0  0  0  0  0  0  0  0  0  0
   -8.1230    2.0948    2.9150 H   0  0  0  0  0  0  0  0  0  0  0  0
    3.5944   -1.5308   -5.0362 H   0  0  0  0  0  0  0  0  0  0  0  0
    5.0526   -1.8333   -4.0983 H   0  0  0  0  0  0  0  0  0  0  0  0
    4.1766   -0.1801   -4.0714 H   0  0  0  0  0  0  0  0  0  0  0  0
   -3.5882   -1.7842    0.2883 H   0  0  0  0  0  0  0  0  0  0  0  0
   -2.9867   -3.1399    1.2343 H   0  0  0  0  0  0  0  0  0  0  0  0
   -4.4481   -2.3851    1.8368 H   0  0  0  0  0  0  0  0  0  0  0  0
   11.0570    3.0012    0.0994 H   0  0  0  0  0  0  0  0  0  0  0  0
   12.4421    2.9350   -0.9607 H   0  0  0  0  0  0  0  0  0  0  0  0
  -13.3884   -0.0665   -0.1700 H   0  0  0  0  0  0  0  0  0  0  0  0
  -13.5672    0.9712    1.2432 H   0  0  0  0  0  0  0  0  0  0  0  0
    7.4311    2.0236   -0.1471 H   0  0  0  0  0  0  0  0  0  0  0  0
    8.8798    2.4246   -1.0327 H   0  0  0  0  0  0  0  0  0  0  0  0
   -8.8938    0.1209    2.2855 H   0  0  0  0  0  0  0  0  0  0  0  0
   -7.7987   -1.1565    1.7329 H   0  0  0  0  0  0  0  0  0  0  0  0
    4.3692   -1.2367   -0.2698 H   0  0  0  0  0  0  0  0  0  0  0  0
    3.5914    0.3166   -0.1236 H   0  0  0  0  0  0  0  0  0  0  0  0
   -4.7508    1.0007    3.7608 H   0  0  0  0  0  0  0  0  0  0  0  0
   -3.9053    1.4019    2.2679 H   0  0  0  0  0  0  0  0  0  0  0  0
   12.2117    1.0563    1.4870 H   0  0  0  0  0  0  0  0  0  0  0  0
   13.5522    1.1645    0.3251 H   0  0  0  0  0  0  0  0  0  0  0  0
  -12.4500    2.8523    0.0880 H   0  0  0  0  0  0  0  0  0  0  0  0
  -12.2603    1.9398   -1.4364 H   0  0  0  0  0  0  0  0  0  0  0  0
   10.6818    1.7938   -2.0500 H   0  0  0  0  0  0  0  0  0  0  0  0
   12.0772    0.7868   -1.7731 H   0  0  0  0  0  0  0  0  0  0  0  0
  -11.7232   -0.5599    1.5409 H   0  0  0  0  0  0  0  0  0  0  0  0
  -11.1099    1.1303    1.5150 H   0  0  0  0  0  0  0  0  0  0  0  0
    8.5151   -0.2333    0.3754 H   0  0  0  0  0  0  0  0  0  0  0  0
    9.4295    1.1246    0.9629 H   0  0  0  0  0  0  0  0  0  0  0  0
   -8.9510   -1.4865   -0.3505 H   0  0  0  0  0  0  0  0  0  0  0  0
   -9.9605   -1.8168    1.0506 H   0  0  0  0  0  0  0  0  0  0  0  0
    8.3392    0.8287   -2.8396 H   0  0  0  0  0  0  0  0  0  0  0  0
    7.0322    1.9371   -2.4786 H   0  0  0  0  0  0  0  0  0  0  0  0
   -6.9877    0.3922   -0.1375 H   0  0  0  0  0  0  0  0  0  0  0  0
   -8.1109    1.6503    0.4561 H   0  0  0  0  0  0  0  0  0  0  0  0
    5.0809    1.4540   -1.6116 H   0  0  0  0  0  0  0  0  0  0  0  0
    5.8180    0.7993   -0.1646 H   0  0  0  0  0  0  0  0  0  0  0  0
   -5.1814   -0.3577    1.0440 H   0  0  0  0  0  0  0  0  0  0  0  0
   -6.0568   -0.7672    2.5554 H   0  0  0  0  0  0  0  0  0  0  0  0
    2.7776    0.3176   -2.4046 H   0  0  0  0  0  0  0  0  0  0  0  0
    2.0962   -0.8725   -1.3527 H   0  0  0  0  0  0  0  0  0  0  0  0
   -2.5462    0.1175    3.8056 H   0  0  0  0  0  0  0  0  0  0  0  0
   -3.7988   -1.1905    3.9485 H   0  0  0  0  0  0  0  0  0  0  0  0
    3.3653   -3.6963   -3.6364 H   0  0  0  0  0  0  0  0  0  0  0  0
    4.6172   -3.2482   -2.4966 H   0  0  0  0  0  0  0  0  0  0  0  0
   -2.5538    0.2775    0.6719 H   0  0  0  0  0  0  0  0  0  0  0  0
   -1.1397    0.3357    1.7883 H   0  0  0  0  0  0  0  0  0  0  0  0
    1.6484   -3.9774   -2.0769 H   0  0  0  0  0  0  0  0  0  0  0  0
    3.0080   -5.0611   -1.8878 H   0  0  0  0  0  0  0  0  0  0  0  0
   -1.6748   -1.8076   -0.3766 H   0  0  0  0  0  0  0  0  0  0  0  0
   -0.3743   -0.5564   -0.3646 H   0  0  0  0  0  0  0  0  0  0  0  0
    0.4447   -5.0790   -0.1569 H   0  0  0  0  0  0  0  0  0  0  0  0
   -1.1278   -4.3794    0.3109 H   0  0  0  0  0  0  0  0  0  0  0  0
    2.3646   -1.9644    0.6044 H   0  0  0  0  0  0  0  0  0  0  0  0
    2.0220   -3.4376    1.4994 H   0  0  0  0  0  0  0  0  0  0  0  0
   13.9585    3.5218    0.9305 H   0  0  0  0  0  0  0  0  0  0  0  0
  -14.1805    3.3194   -1.5792 H   0  0  0  0  0  0  0  0  0  0  0  0
   10.1178   -0.4836   -1.5971 H   0  0  0  0  0  0  0  0  0  0  0  0
  -11.1308   -0.8856   -0.8002 H   0  0  0  0  0  0  0  0  0  0  0  0
    6.2709   -0.1786   -3.0171 H   0  0  0  0  0  0  0  0  0  0  0  0
   -5.9238    1.9640    1.2497 H   0  0  0  0  0  0  0  0  0  0  0  0
    2.1527   -1.6942   -3.4399 H   0  0  0  0  0  0  0  0  0  0  0  0
   -1.8560   -1.8689    2.6921 H   0  0  0  0  0  0  0  0  0  0  0  0
    0.2526   -2.7200   -0.8860 H   0  0  0  0  0  0  0  0  0  0  0  0
   -0.2606   -3.8110    2.3168 H   0  0  0  0  0  0  0  0  0  0  0  0
 11 17  1  0
 12 18  1  0
 11 19  1  0
 12 20  1  0
 13 21  1  0
 14 22  1  0
 13 23  1  0
 14 24  1  0
 15 25  1  0
 16 26  1  0
 15 27  1  0
 16 28  1  0
 29 31  1  0
 30 32  1  0
  1 35  1  0
  2 35  1  0
 17 35  1  0
  3 36  1  0
  4 36  1  0
 18 36  1  0
 37  5  1  0
 19 37  1  0
 21 37  1  0
 38  6  1  0
 20 38  1  0
 22 38  1  0
 39  7  1  0
 23 39  1  0
 25 39  1  0
 40  8  1  0
 24 40  1  0
 26 40  1  0
 41  9  1  0
 27 41  1  0
 29 41  1  0
 42 10  1  0
 28 42  1  0
 30 42  1  0
 33 43  1  0
 34 43  1  0
 33 44  1  0
 31 45  1  0
 34 45  1  0
 32 46  1  0
 43 46  1  0
  1 47  1  0
  1 48  1  0
  1 49  1  0
  2 50  1  0
  2 51  1  0
  2 52  1  0
  3 53  1  0
  3 54  1  0
  3 55  1  0
  4 56  1  0
  4 57  1  0
  4 58  1  0
  5 59  1  0
  5 60  1  0
  5 61  1  0
  6 62  1  0
  6 63  1  0
  6 64  1  0
  7 65  1  0
  7 66  1  0
  7 67  1  0
  8 68  1  0
  8 69  1  0
  8 70  1  0
  9 71  1  0
  9 72  1  0
  9 73  1  0
 10 74  1  0
 10 75  1  0
 10 76  1  0
 11 77  1  0
 11 78  1  0
 12 79  1  0
 12 80  1  0
 13 81  1  0
 13 82  1  0
 14 83  1  0
 14 84  1  0
 15 85  1  0
 15 86  1  0
 16 87  1  0
 16 88  1  0
 17 89  1  0
 17 90  1  0
 18 91  1  0
 18 92  1  0
 19 93  1  0
 19 94  1  0
 20 95  1  0
 20 96  1  0
 21 97  1  0
 21 98  1  0
 22 99  1  0
 22100  1  0
 23101  1  0
 23102  1  0
 24103  1  0
 24104  1  0
 25105  1  0
 25106  1  0
 26107  1  0
 26108  1  0
 27109  1  0
 27110  1  0
 28111  1  0
 28112  1  0
 29113  1  0
 29114  1  0
 30115  1  0
 30116  1  0
 31117  1  0
 31118  1  0
 32119  1  0
 32120  1  0
 33121  1  0
 33122  1  0
 34123  1  0
 34124  1  0
 35125  1  0
 36126  1  0
 37127  1  6
 38128  1  6
 39129  1  6
 40130  1  6
 41131  1  6
 42132  1  1
 43133  1  6
 44134  1  0
M  END

