46506855
     RDKit          3D

 91 96  0  0  1  0  0  0  0  0999 V2000
    4.8350   -0.4580    1.1051 C   0  0  2  0  0  0  0  0  0  0  0  0
    5.0701   -1.7826    0.4843 C   0  0  2  0  0  0  0  0  0  0  0  0
    4.0640   -2.8328    0.7756 C   0  0  0  0  0  0  0  0  0  0  0  0
    2.6633   -2.4141    0.8925 C   0  0  1  0  0  0  0  0  0  0  0  0
    2.4223   -0.9209    0.6640 C   0  0  2  0  0  0  0  0  0  0  0  0
    3.4236   -0.2060    1.5420 C   0  0  0  0  0  0  0  0  0  0  0  0
    1.6828   -3.2473    0.0665 C   0  0  0  0  0  0  0  0  0  0  0  0
    0.2789   -2.8388    0.3592 C   0  0  0  0  0  0  0  0  0  0  0  0
    0.0702   -1.3215    0.2358 C   0  0  2  0  0  0  0  0  0  0  0  0
    1.0275   -0.6898    1.2080 C   0  0  2  0  0  0  0  0  0  0  0  0
   -1.3076   -0.9501    0.6005 C   0  0  1  0  0  0  0  0  0  0  0  0
   -1.4275    0.5688    0.5223 C   0  0  2  0  0  0  0  0  0  0  0  0
   -0.6666    1.0818    1.7216 C   0  0  0  0  0  0  0  0  0  0  0  0
    0.7730    0.7222    1.5415 C   0  0  0  0  0  0  0  0  0  0  0  0
   -2.3783   -1.2996   -0.4255 C   0  0  0  0  0  0  0  0  0  0  0  0
   -3.5276   -0.3812   -0.1645 C   0  0  1  0  0  0  0  0  0  0  0  0
   -2.9447    0.6037    0.7643 C   0  0  2  0  0  0  0  0  0  0  0  0
    6.3248   -2.2709    0.9269 O   0  0  0  0  0  0  0  0  0  0  0  0
    5.2501    0.6227    0.2479 N   0  0  0  0  0  0  0  0  0  0  0  0
    2.4790   -0.5232   -0.7615 C   0  0  0  0  0  0  0  0  0  0  0  0
   -0.9983    1.1887   -0.7318 C   0  0  0  0  0  0  0  0  0  0  0  0
   -4.3436   -0.0062   -1.2494 N   0  0  0  0  0  4  0  0  0  0  0  0
   -3.4414    1.8815    0.8268 O   0  0  0  0  0  0  0  0  0  0  0  0
   -5.4094   -1.0187   -1.3964 C   0  0  0  0  0  0  0  0  0  0  0  0
   -3.8765    2.5410    1.9813 C   0  0  0  0  0  0  0  0  0  0  0  0
   -4.3980    3.9100    1.9787 C   0  0  0  0  0  0  0  0  0  0  0  0
   -3.7834    1.8509    3.0485 O   0  0  0  0  0  0  0  0  0  0  0  0
   -3.8100    0.1056   -2.5510 C   0  0  0  0  0  0  0  0  0  0  0  0
   -4.4347   -0.9211   -3.4740 C   0  0  0  0  0  0  0  0  0  0  0  0
   -4.9818   -1.9237   -2.5075 C   0  0  0  0  0  0  0  0  0  0  0  0
   -5.0737    1.2370   -1.0280 C   0  0  0  0  0  0  0  0  0  0  0  0
   -6.2315    1.3979   -1.9496 C   0  0  0  0  0  0  0  0  0  0  0  0
   -7.4906    1.5304   -1.5465 C   0  0  0  0  0  0  0  0  0  0  0  0
    5.0166    1.9222    0.8047 C   0  0  0  0  0  0  0  0  0  0  0  0
    5.9982    2.8903    0.1387 C   0  0  0  0  0  0  0  0  0  0  0  0
    7.3057    2.5964    0.4232 O   0  0  0  0  0  0  0  0  0  0  0  0
    7.5460    1.2306    0.5534 C   0  0  0  0  0  0  0  0  0  0  0  0
    6.5495    0.4877   -0.3109 C   0  0  0  0  0  0  0  0  0  0  0  0
    5.4724   -0.3678    2.0351 H   0  0  0  0  0  0  0  0  0  0  0  0
    5.1939   -1.7173   -0.6371 H   0  0  0  0  0  0  0  0  0  0  0  0
    4.1306   -3.6106   -0.0430 H   0  0  0  0  0  0  0  0  0  0  0  0
    4.4017   -3.4056    1.6909 H   0  0  0  0  0  0  0  0  0  0  0  0
    2.3270   -2.5829    1.9609 H   0  0  0  0  0  0  0  0  0  0  0  0
    3.3053   -0.6735    2.5650 H   0  0  0  0  0  0  0  0  0  0  0  0
    3.2128    0.8544    1.6778 H   0  0  0  0  0  0  0  0  0  0  0  0
    1.7977   -4.2951    0.4748 H   0  0  0  0  0  0  0  0  0  0  0  0
    1.9520   -3.3073   -0.9853 H   0  0  0  0  0  0  0  0  0  0  0  0
   -0.3895   -3.3341   -0.3575 H   0  0  0  0  0  0  0  0  0  0  0  0
    0.0246   -3.0936    1.3918 H   0  0  0  0  0  0  0  0  0  0  0  0
    0.2629   -1.0802   -0.8071 H   0  0  0  0  0  0  0  0  0  0  0  0
    0.9305   -1.2924    2.1592 H   0  0  0  0  0  0  0  0  0  0  0  0
   -1.6178   -1.2432    1.6220 H   0  0  0  0  0  0  0  0  0  0  0  0
   -0.7783    2.1598    1.8798 H   0  0  0  0  0  0  0  0  0  0  0  0
   -1.0358    0.5277    2.6153 H   0  0  0  0  0  0  0  0  0  0  0  0
    1.2952    1.4093    0.8117 H   0  0  0  0  0  0  0  0  0  0  0  0
    1.2826    0.9480    2.5188 H   0  0  0  0  0  0  0  0  0  0  0  0
   -2.6044   -2.3915   -0.2404 H   0  0  0  0  0  0  0  0  0  0  0  0
   -1.8675   -1.2459   -1.3598 H   0  0  0  0  0  0  0  0  0  0  0  0
   -4.1965   -1.0157    0.5164 H   0  0  0  0  0  0  0  0  0  0  0  0
   -2.9758    0.2321    1.8422 H   0  0  0  0  0  0  0  0  0  0  0  0
    6.2457   -3.1248    1.3843 H   0  0  0  0  0  0  0  0  0  0  0  0
    3.4546   -0.1372   -1.1111 H   0  0  0  0  0  0  0  0  0  0  0  0
    2.2212   -1.3473   -1.4715 H   0  0  0  0  0  0  0  0  0  0  0  0
    1.7681    0.3451   -0.8985 H   0  0  0  0  0  0  0  0  0  0  0  0
   -1.8055    1.8673   -1.1396 H   0  0  0  0  0  0  0  0  0  0  0  0
   -0.1340    1.8972   -0.5594 H   0  0  0  0  0  0  0  0  0  0  0  0
   -0.6994    0.5485   -1.5551 H   0  0  0  0  0  0  0  0  0  0  0  0
   -6.3877   -0.6315   -1.6088 H   0  0  0  0  0  0  0  0  0  0  0  0
   -5.4787   -1.6419   -0.4697 H   0  0  0  0  0  0  0  0  0  0  0  0
   -4.3892    4.2664    3.0490 H   0  0  0  0  0  0  0  0  0  0  0  0
   -3.8038    4.6256    1.4075 H   0  0  0  0  0  0  0  0  0  0  0  0
   -5.4442    3.9852    1.6228 H   0  0  0  0  0  0  0  0  0  0  0  0
   -2.7352   -0.0076   -2.6916 H   0  0  0  0  0  0  0  0  0  0  0  0
   -4.0221    1.0952   -3.0687 H   0  0  0  0  0  0  0  0  0  0  0  0
   -5.2001   -0.4933   -4.1451 H   0  0  0  0  0  0  0  0  0  0  0  0
   -3.7025   -1.4407   -4.1251 H   0  0  0  0  0  0  0  0  0  0  0  0
   -4.2807   -2.7075   -2.2168 H   0  0  0  0  0  0  0  0  0  0  0  0
   -5.8785   -2.3900   -2.9672 H   0  0  0  0  0  0  0  0  0  0  0  0
   -5.5072    1.2173   -0.0121 H   0  0  0  0  0  0  0  0  0  0  0  0
   -4.4432    2.1234   -1.2405 H   0  0  0  0  0  0  0  0  0  0  0  0
   -6.1276    1.4185   -3.0265 H   0  0  0  0  0  0  0  0  0  0  0  0
   -7.6581    1.5166   -0.4551 H   0  0  0  0  0  0  0  0  0  0  0  0
   -8.3451    1.6471   -2.1554 H   0  0  0  0  0  0  0  0  0  0  0  0
    5.0889    1.9725    1.8996 H   0  0  0  0  0  0  0  0  0  0  0  0
    4.0040    2.2595    0.4320 H   0  0  0  0  0  0  0  0  0  0  0  0
    5.7703    3.9248    0.5010 H   0  0  0  0  0  0  0  0  0  0  0  0
    5.7495    2.8839   -0.9427 H   0  0  0  0  0  0  0  0  0  0  0  0
    8.5590    1.0214    0.1507 H   0  0  0  0  0  0  0  0  0  0  0  0
    7.4111    0.9604    1.6024 H   0  0  0  0  0  0  0  0  0  0  0  0
    6.8474   -0.5303   -0.5378 H   0  0  0  0  0  0  0  0  0  0  0  0
    6.5439    1.0387   -1.2984 H   0  0  0  0  0  0  0  0  0  0  0  0
  1  2  1  0
  2  3  1  0
  3  4  1  0
  4  5  1  0
  5  6  1  0
  1  6  1  0
  4  7  1  0
  7  8  1  0
  8  9  1  0
  9 10  1  0
  5 10  1  0
  9 11  1  0
 11 12  1  0
 12 13  1  0
 13 14  1  0
 10 14  1  0
 11 15  1  0
 15 16  1  0
 16 17  1  0
 12 17  1  0
  2 18  1  0
  1 19  1  0
  5 20  1  6
 12 21  1  6
 16 22  1  0
 17 23  1  0
 22 24  1  0
 23 25  1  0
 25 26  1  0
 25 27  2  0
 22 28  1  0
 28 29  1  0
 29 30  1  0
 24 30  1  0
 22 31  1  0
 31 32  1  0
 32 33  2  3
 19 34  1  0
 34 35  1  0
 35 36  1  0
 36 37  1  0
 37 38  1  0
 19 38  1  0
  1 39  1  1
  2 40  1  6
  3 41  1  0
  3 42  1  0
  4 43  1  1
  6 44  1  0
  6 45  1  0
  7 46  1  0
  7 47  1  0
  8 48  1  0
  8 49  1  0
  9 50  1  6
 10 51  1  1
 11 52  1  1
 13 53  1  0
 13 54  1  0
 14 55  1  0
 14 56  1  0
 15 57  1  0
 15 58  1  0
 16 59  1  1
 17 60  1  1
 18 61  1  0
 20 62  1  0
 20 63  1  0
 20 64  1  0
 21 65  1  0
 21 66  1  0
 21 67  1  0
 24 68  1  0
 24 69  1  0
 26 70  1  0
 26 71  1  0
 26 72  1  0
 28 73  1  0
 28 74  1  0
 29 75  1  0
 29 76  1  0
 30 77  1  0
 30 78  1  0
 31 79  1  0
 31 80  1  0
 32 81  1  0
 33 82  1  0
 33 83  1  0
 34 84  1  0
 34 85  1  0
 35 86  1  0
 35 87  1  0
 37 88  1  0
 37 89  1  0
 38 90  1  0
 38 91  1  0
M  CHG  1  22   1
M  END

