46506862
     RDKit          3D

  5  4  0  0  0  0  0  0  0  0999 V2000
   -0.5751    0.0059   -0.0007 N   0  0  0  0  0  0  0  0  0  0  0  0
    0.8214   -0.0163    0.0065 C   0  0  0  0  0  0  0  0  0  0  0  0
    1.9787   -0.0363    0.0012 N   0  0  0  0  0  0  0  0  0  0  0  0
   -1.1354   -0.8757    0.0047 H   0  0  0  0  0  0  0  0  0  0  0  0
   -1.0896    0.9224   -0.0117 H   0  0  0  0  0  0  0  0  0  0  0  0
  1  2  1  0
  2  3  3  0
  1  4  1  0
  1  5  1  0
M  END

