46506296
     RDKit          3D

 58 62  0  0  1  0  0  0  0  0999 V2000
   10.0473    0.3940    0.7564 F   0  0  0  0  0  0  0  0  0  0  0  0
    6.2200    0.1959   -2.2201 O   0  0  0  0  0  0  0  0  0  0  0  0
   -7.4985    0.1905    1.0755 O   0  0  0  0  0  0  0  0  0  0  0  0
   -3.1330    1.9867   -0.9682 O   0  0  0  0  0  0  0  0  0  0  0  0
    1.0153    0.7222   -0.2020 N   0  0  0  0  0  0  0  0  0  0  0  0
   -4.8398    0.6511   -0.2713 N   0  0  0  0  0  0  0  0  0  0  0  0
    4.9648   -0.1307   -2.0150 N   0  0  0  0  0  0  0  0  0  0  0  0
   -4.4061   -0.9356    1.3913 N   0  0  0  0  0  0  0  0  0  0  0  0
    3.5122   -0.8846   -0.0394 C   0  0  0  0  0  0  0  0  0  0  0  0
    2.4363   -1.0966   -1.0649 C   0  0  0  0  0  0  0  0  0  0  0  0
    3.0754    0.1934    0.9141 C   0  0  0  0  0  0  0  0  0  0  0  0
    1.7362    0.2114   -1.3271 C   0  0  0  0  0  0  0  0  0  0  0  0
    1.5771    0.3063    1.0656 C   0  0  0  0  0  0  0  0  0  0  0  0
   -0.3769    0.3462   -0.3326 C   0  0  0  0  0  0  0  0  0  0  0  0
    4.7819   -0.4550   -0.7250 C   0  0  0  0  0  0  0  0  0  0  0  0
   -1.2272    0.8505    0.7784 C   0  0  0  0  0  0  0  0  0  0  0  0
   -2.6500    0.4573    0.6592 C   0  0  0  0  0  0  0  0  0  0  0  0
   -5.6880    1.3446   -1.2173 C   0  0  0  0  0  0  0  0  0  0  0  0
   -6.6776   -0.7589    0.4501 C   0  0  0  0  0  0  0  0  0  0  0  0
   -6.9571    0.6439   -1.5458 C   0  0  0  0  0  0  0  0  0  0  0  0
   -7.0413   -0.7721   -1.0052 C   0  0  0  0  0  0  0  0  0  0  0  0
   -5.2395   -0.3269    0.5265 C   0  0  0  0  0  0  0  0  0  0  0  0
    6.0282   -0.3048   -0.1373 C   0  0  0  0  0  0  0  0  0  0  0  0
   -3.5525    1.0451   -0.2099 C   0  0  0  0  0  0  0  0  0  0  0  0
   -3.1131   -0.5729    1.4854 C   0  0  0  0  0  0  0  0  0  0  0  0
    6.9149    0.1084   -1.1146 C   0  0  0  0  0  0  0  0  0  0  0  0
    6.5017   -0.4815    1.1434 C   0  0  0  0  0  0  0  0  0  0  0  0
   -2.1579   -1.1976    2.4115 C   0  0  0  0  0  0  0  0  0  0  0  0
    8.2493    0.3398   -0.8090 C   0  0  0  0  0  0  0  0  0  0  0  0
    7.8482   -0.2463    1.4392 C   0  0  0  0  0  0  0  0  0  0  0  0
    8.7295    0.1647    0.4701 C   0  0  0  0  0  0  0  0  0  0  0  0
   -7.0653    1.0814    1.1490 H   0  0  0  0  0  0  0  0  0  0  0  0
    3.6919   -1.8182    0.4891 H   0  0  0  0  0  0  0  0  0  0  0  0
    1.7463   -1.9138   -0.7775 H   0  0  0  0  0  0  0  0  0  0  0  0
    2.9473   -1.3979   -2.0062 H   0  0  0  0  0  0  0  0  0  0  0  0
    3.4981   -0.0109    1.9285 H   0  0  0  0  0  0  0  0  0  0  0  0
    3.4686    1.1581    0.5575 H   0  0  0  0  0  0  0  0  0  0  0  0
    1.1098    0.0812   -2.2384 H   0  0  0  0  0  0  0  0  0  0  0  0
    2.5241    0.9433   -1.6215 H   0  0  0  0  0  0  0  0  0  0  0  0
    1.0962   -0.5832    1.4590 H   0  0  0  0  0  0  0  0  0  0  0  0
    1.4254    1.1877    1.7565 H   0  0  0  0  0  0  0  0  0  0  0  0
   -0.4792   -0.7562   -0.4053 H   0  0  0  0  0  0  0  0  0  0  0  0
   -0.7397    0.7510   -1.2959 H   0  0  0  0  0  0  0  0  0  0  0  0
   -1.2274    1.9811    0.7223 H   0  0  0  0  0  0  0  0  0  0  0  0
   -0.8466    0.6140    1.7852 H   0  0  0  0  0  0  0  0  0  0  0  0
   -5.1650    1.5983   -2.1667 H   0  0  0  0  0  0  0  0  0  0  0  0
   -5.9577    2.3536   -0.7821 H   0  0  0  0  0  0  0  0  0  0  0  0
   -6.8078   -1.7598    0.9116 H   0  0  0  0  0  0  0  0  0  0  0  0
   -7.1063    0.5463   -2.6570 H   0  0  0  0  0  0  0  0  0  0  0  0
   -7.8508    1.2077   -1.1609 H   0  0  0  0  0  0  0  0  0  0  0  0
   -6.4214   -1.4769   -1.5634 H   0  0  0  0  0  0  0  0  0  0  0  0
   -8.1013   -1.0819   -1.0917 H   0  0  0  0  0  0  0  0  0  0  0  0
    5.8312   -0.8023    1.9241 H   0  0  0  0  0  0  0  0  0  0  0  0
   -2.7065   -2.0048    2.9450 H   0  0  0  0  0  0  0  0  0  0  0  0
   -1.3142   -1.6649    1.8757 H   0  0  0  0  0  0  0  0  0  0  0  0
   -1.7964   -0.5007    3.1976 H   0  0  0  0  0  0  0  0  0  0  0  0
    8.9392    0.6640   -1.5691 H   0  0  0  0  0  0  0  0  0  0  0  0
    8.2279   -0.3846    2.4587 H   0  0  0  0  0  0  0  0  0  0  0  0
  1 31  1  0
  2  7  1  0
  2 26  1  0
  3 19  1  0
  4 24  2  0
  5 12  1  0
  5 13  1  0
  5 14  1  0
  6 18  1  0
  6 22  1  0
  6 24  1  0
  7 15  2  0
  8 22  2  0
  8 25  1  0
  9 10  1  0
  9 11  1  0
  9 15  1  0
 10 12  1  0
 11 13  1  0
 14 16  1  0
 15 23  1  0
 16 17  1  0
 17 24  1  0
 17 25  2  0
 18 20  1  0
 19 21  1  0
 19 22  1  0
 20 21  1  0
 23 26  2  0
 23 27  1  0
 25 28  1  0
 26 29  1  0
 27 30  2  0
 29 31  2  0
 30 31  1  0
  3 32  1  0
  9 33  1  0
 10 34  1  0
 10 35  1  0
 11 36  1  0
 11 37  1  0
 12 38  1  0
 12 39  1  0
 13 40  1  0
 13 41  1  0
 14 42  1  0
 14 43  1  0
 16 44  1  0
 16 45  1  0
 18 46  1  0
 18 47  1  0
 19 48  1  0
 20 49  1  0
 20 50  1  0
 21 51  1  0
 21 52  1  0
 27 53  1  0
 28 54  1  0
 28 55  1  0
 28 56  1  0
 29 57  1  0
 30 58  1  0
M  END

