46508135
     RDKit          3D

 25 26  0  0  1  0  0  0  0  0999 V2000
   -1.1275    1.1688   -0.4736 O   0  0  0  0  0  0  0  0  0  0  0  0
   -2.4551   -0.4950   -0.8899 N   0  0  0  0  0  0  0  0  0  0  0  0
   -3.3584    1.6309   -1.5071 N   0  0  0  0  0  0  0  0  0  0  0  0
   -0.6201    0.1110    0.3117 C   0  0  0  0  0  0  0  0  0  0  0  0
   -1.2636   -1.0650   -0.3042 C   0  0  0  0  0  0  0  0  0  0  0  0
    0.8368    0.1635    0.2759 C   0  0  0  0  0  0  0  0  0  0  0  0
   -1.6468   -2.0399    0.8135 C   0  0  0  0  0  0  0  0  0  0  0  0
   -2.3445    0.7695   -0.9706 C   0  0  0  0  0  0  0  0  0  0  0  0
    1.6739   -0.9016    0.0930 C   0  0  0  0  0  0  0  0  0  0  0  0
    1.4313    1.4091    0.4426 C   0  0  0  0  0  0  0  0  0  0  0  0
    3.0471   -0.7452    0.0751 C   0  0  0  0  0  0  0  0  0  0  0  0
    2.8009    1.5796    0.4269 C   0  0  0  0  0  0  0  0  0  0  0  0
    3.6364    0.4904    0.2405 C   0  0  0  0  0  0  0  0  0  0  0  0
   -3.2311    2.0979   -2.4321 H   0  0  0  0  0  0  0  0  0  0  0  0
   -4.2473    1.8147   -0.9917 H   0  0  0  0  0  0  0  0  0  0  0  0
   -0.9591    0.2826    1.3531 H   0  0  0  0  0  0  0  0  0  0  0  0
   -0.7195   -1.5825   -1.0811 H   0  0  0  0  0  0  0  0  0  0  0  0
   -1.0664   -1.7986    1.7405 H   0  0  0  0  0  0  0  0  0  0  0  0
   -1.4005   -3.0789    0.5514 H   0  0  0  0  0  0  0  0  0  0  0  0
   -2.7015   -1.8724    1.0476 H   0  0  0  0  0  0  0  0  0  0  0  0
    1.2353   -1.8735   -0.0378 H   0  0  0  0  0  0  0  0  0  0  0  0
    0.8360    2.3134    0.5944 H   0  0  0  0  0  0  0  0  0  0  0  0
    3.6918   -1.5934   -0.0698 H   0  0  0  0  0  0  0  0  0  0  0  0
    3.2411    2.5750    0.5612 H   0  0  0  0  0  0  0  0  0  0  0  0
    4.7110    0.6394    0.2305 H   0  0  0  0  0  0  0  0  0  0  0  0
  1  4  1  0
  1  8  1  0
  2  5  1  0
  2  8  2  0
  3  8  1  0
  4  5  1  0
  4  6  1  0
  5  7  1  0
  6  9  2  0
  6 10  1  0
  9 11  1  0
 10 12  2  0
 11 13  2  0
 12 13  1  0
  3 14  1  0
  3 15  1  0
  4 16  1  0
  5 17  1  0
  7 18  1  0
  7 19  1  0
  7 20  1  0
  9 21  1  0
 10 22  1  0
 11 23  1  0
 12 24  1  0
 13 25  1  0
M  END

