46505702
     RDKit          3D

123126  0  0  1  0  0  0  0  0999 V2000
    0.2524    1.0889    0.2817 C   0  0  0  0  0  0  0  0  0  0  0  0
    0.6225    1.5563   -1.0798 C   0  0  1  0  0  0  0  0  0  0  0  0
   -0.4017    2.6126   -1.5449 C   0  0  0  0  0  0  0  0  0  0  0  0
   -1.6990    1.8806   -1.4922 C   0  0  0  0  0  0  0  0  0  0  0  0
   -2.2061    1.4562   -0.1875 C   0  0  2  0  0  0  0  0  0  0  0  0
   -1.1242    0.5308    0.3948 C   0  0  0  0  0  0  0  0  0  0  0  0
   -2.3184    1.6515   -2.6192 C   0  0  0  0  0  0  0  0  0  0  0  0
   -3.6107    0.9355   -2.7080 C   0  0  0  0  0  0  0  0  0  0  0  0
   -4.3640    1.2398   -1.4305 C   0  0  2  0  0  0  0  0  0  0  0  0
   -3.4755    0.6942   -0.3272 C   0  0  2  0  0  0  0  0  0  0  0  0
   -5.5635    0.3965   -1.4155 C   0  0  1  0  0  0  0  0  0  0  0  0
   -6.4229    0.5783   -0.1594 C   0  0  2  0  0  0  0  0  0  0  0  0
   -5.5484   -0.0760    0.8989 C   0  0  0  0  0  0  0  0  0  0  0  0
   -4.2084    0.5653    0.9860 C   0  0  0  0  0  0  0  0  0  0  0  0
   -6.5659    0.5557   -2.4882 C   0  0  0  0  0  0  0  0  0  0  0  0
   -7.5288   -0.5133   -2.0123 C   0  0  0  0  0  0  0  0  0  0  0  0
   -7.6060   -0.2031   -0.5261 C   0  0  2  0  0  0  0  0  0  0  0  0
    1.9329    2.0318   -1.1129 O   0  0  0  0  0  0  0  0  0  0  0  0
   -6.5667    1.9719    0.2616 C   0  0  0  0  0  0  0  0  0  0  0  0
   -8.9808    0.1868   -0.2236 C   0  0  2  0  0  0  0  0  0  0  0  0
   -9.5184    1.4612   -0.7556 C   0  0  0  0  0  0  0  0  0  0  0  0
   -9.4780    0.0003    1.1865 C   0  0  0  0  0  0  0  0  0  0  0  0
   -9.4274   -1.4500    1.6441 C   0  0  0  0  0  0  0  0  0  0  0  0
   -9.9497   -1.5755    3.0585 C   0  0  0  0  0  0  0  0  0  0  0  0
  -11.3842   -1.1092    3.1682 C   0  0  0  0  0  0  0  0  0  0  0  0
  -12.3049   -1.9146    2.2798 C   0  0  0  0  0  0  0  0  0  0  0  0
  -11.8754   -1.3172    4.5845 C   0  0  0  0  0  0  0  0  0  0  0  0
   -2.3309    2.6022    0.8024 C   0  0  0  0  0  0  0  0  0  0  0  0
    2.9000    1.5415   -1.9921 C   0  0  0  0  0  0  0  0  0  0  0  0
    4.2860    2.0268   -2.0385 C   0  0  0  0  0  0  0  0  0  0  0  0
    2.5210    0.6381   -2.7684 O   0  0  0  0  0  0  0  0  0  0  0  0
    5.0788    1.2999   -3.0673 C   0  0  0  0  0  0  0  0  0  0  0  0
    5.2364   -0.1599   -2.8504 C   0  0  0  0  0  0  0  0  0  0  0  0
    5.9628   -0.4311   -1.5342 C   0  0  0  0  0  0  0  0  0  0  0  0
    6.0595   -1.9231   -1.4266 C   0  0  0  0  0  0  0  0  0  0  0  0
    6.7463   -2.3861   -0.2160 C   0  0  0  0  0  0  0  0  0  0  0  0
    8.1757   -2.0665   -0.0267 C   0  0  0  0  0  0  0  0  0  0  0  0
    8.6243   -0.6954    0.0416 C   0  0  0  0  0  0  0  0  0  0  0  0
    9.4955   -0.1194   -0.7545 C   0  0  0  0  0  0  0  0  0  0  0  0
   10.1465   -0.7720   -1.8381 C   0  0  0  0  0  0  0  0  0  0  0  0
   11.5786   -0.9676   -1.8707 C   0  0  0  0  0  0  0  0  0  0  0  0
   12.4981   -0.7089   -1.0193 C   0  0  0  0  0  0  0  0  0  0  0  0
   12.3560   -0.1114    0.3114 C   0  0  0  0  0  0  0  0  0  0  0  0
   12.8777   -1.0442    1.3780 C   0  0  0  0  0  0  0  0  0  0  0  0
   12.8601   -0.5673    2.7690 C   0  0  0  0  0  0  0  0  0  0  0  0
   11.5765   -0.2158    3.4245 C   0  0  0  0  0  0  0  0  0  0  0  0
   10.8279    0.9304    2.8697 C   0  0  0  0  0  0  0  0  0  0  0  0
    0.4653    1.8781    1.0529 H   0  0  0  0  0  0  0  0  0  0  0  0
    0.9538    0.2443    0.5445 H   0  0  0  0  0  0  0  0  0  0  0  0
    0.4534    0.7151   -1.8099 H   0  0  0  0  0  0  0  0  0  0  0  0
   -0.3539    3.5115   -0.9398 H   0  0  0  0  0  0  0  0  0  0  0  0
   -0.1086    2.8222   -2.6140 H   0  0  0  0  0  0  0  0  0  0  0  0
   -1.3166    0.3051    1.4628 H   0  0  0  0  0  0  0  0  0  0  0  0
   -1.1735   -0.3990   -0.2079 H   0  0  0  0  0  0  0  0  0  0  0  0
   -1.8841    1.9974   -3.5895 H   0  0  0  0  0  0  0  0  0  0  0  0
   -4.2060    1.2405   -3.5929 H   0  0  0  0  0  0  0  0  0  0  0  0
   -3.3873   -0.1514   -2.7014 H   0  0  0  0  0  0  0  0  0  0  0  0
   -4.5002    2.3153   -1.3942 H   0  0  0  0  0  0  0  0  0  0  0  0
   -3.2208   -0.3527   -0.6403 H   0  0  0  0  0  0  0  0  0  0  0  0
   -5.2351   -0.6647   -1.4335 H   0  0  0  0  0  0  0  0  0  0  0  0
   -6.0144   -0.0254    1.9030 H   0  0  0  0  0  0  0  0  0  0  0  0
   -5.3681   -1.1546    0.6120 H   0  0  0  0  0  0  0  0  0  0  0  0
   -4.1811    1.4886    1.6007 H   0  0  0  0  0  0  0  0  0  0  0  0
   -3.5681   -0.1530    1.5895 H   0  0  0  0  0  0  0  0  0  0  0  0
   -6.1495    0.2805   -3.4802 H   0  0  0  0  0  0  0  0  0  0  0  0
   -6.9746    1.5737   -2.4625 H   0  0  0  0  0  0  0  0  0  0  0  0
   -7.0246   -1.4880   -2.2187 H   0  0  0  0  0  0  0  0  0  0  0  0
   -8.5008   -0.4812   -2.5113 H   0  0  0  0  0  0  0  0  0  0  0  0
   -7.4589   -1.2224   -0.0398 H   0  0  0  0  0  0  0  0  0  0  0  0
   -7.0338    2.0411    1.2629 H   0  0  0  0  0  0  0  0  0  0  0  0
   -5.5379    2.4063    0.4161 H   0  0  0  0  0  0  0  0  0  0  0  0
   -7.0367    2.6676   -0.4392 H   0  0  0  0  0  0  0  0  0  0  0  0
   -9.6081   -0.5919   -0.7832 H   0  0  0  0  0  0  0  0  0  0  0  0
  -10.6496    1.3542   -0.7653 H   0  0  0  0  0  0  0  0  0  0  0  0
   -9.2589    1.7277   -1.7770 H   0  0  0  0  0  0  0  0  0  0  0  0
   -9.3716    2.3495   -0.1225 H   0  0  0  0  0  0  0  0  0  0  0  0
   -9.0605    0.6874    1.9116 H   0  0  0  0  0  0  0  0  0  0  0  0
  -10.5838    0.2409    1.1441 H   0  0  0  0  0  0  0  0  0  0  0  0
   -8.3706   -1.7563    1.6832 H   0  0  0  0  0  0  0  0  0  0  0  0
   -9.9582   -2.1090    0.9471 H   0  0  0  0  0  0  0  0  0  0  0  0
   -9.9057   -2.6328    3.3293 H   0  0  0  0  0  0  0  0  0  0  0  0
   -9.3379   -0.9081    3.6987 H   0  0  0  0  0  0  0  0  0  0  0  0
  -11.5073   -0.0309    2.9385 H   0  0  0  0  0  0  0  0  0  0  0  0
  -13.3365   -1.9344    2.6768 H   0  0  0  0  0  0  0  0  0  0  0  0
  -11.9853   -2.9537    2.1387 H   0  0  0  0  0  0  0  0  0  0  0  0
  -12.3844   -1.4383    1.2693 H   0  0  0  0  0  0  0  0  0  0  0  0
  -12.0600   -2.3866    4.8093 H   0  0  0  0  0  0  0  0  0  0  0  0
  -11.2021   -0.8157    5.3061 H   0  0  0  0  0  0  0  0  0  0  0  0
  -12.8470   -0.7418    4.6410 H   0  0  0  0  0  0  0  0  0  0  0  0
   -3.2389    3.1959    0.6231 H   0  0  0  0  0  0  0  0  0  0  0  0
   -2.2729    2.1587    1.8184 H   0  0  0  0  0  0  0  0  0  0  0  0
   -1.4599    3.2550    0.7106 H   0  0  0  0  0  0  0  0  0  0  0  0
    4.2977    3.1255   -2.2637 H   0  0  0  0  0  0  0  0  0  0  0  0
    4.7455    1.8988   -1.0142 H   0  0  0  0  0  0  0  0  0  0  0  0
    6.0875    1.8069   -3.2090 H   0  0  0  0  0  0  0  0  0  0  0  0
    4.6236    1.4145   -4.0987 H   0  0  0  0  0  0  0  0  0  0  0  0
    4.2782   -0.6758   -2.8435 H   0  0  0  0  0  0  0  0  0  0  0  0
    5.8697   -0.5746   -3.6898 H   0  0  0  0  0  0  0  0  0  0  0  0
    5.3091   -0.0012   -0.7328 H   0  0  0  0  0  0  0  0  0  0  0  0
    6.8909    0.1059   -1.5112 H   0  0  0  0  0  0  0  0  0  0  0  0
    5.0334   -2.3957   -1.4341 H   0  0  0  0  0  0  0  0  0  0  0  0
    6.5396   -2.3301   -2.3740 H   0  0  0  0  0  0  0  0  0  0  0  0
    6.6568   -3.5123   -0.1877 H   0  0  0  0  0  0  0  0  0  0  0  0
    6.1658   -1.9976    0.6780 H   0  0  0  0  0  0  0  0  0  0  0  0
    8.7992   -2.7248   -0.6873 H   0  0  0  0  0  0  0  0  0  0  0  0
    8.4360   -2.5135    1.0115 H   0  0  0  0  0  0  0  0  0  0  0  0
    8.1835   -0.0683    0.8458 H   0  0  0  0  0  0  0  0  0  0  0  0
    9.6850    0.9585   -0.5865 H   0  0  0  0  0  0  0  0  0  0  0  0
    9.8452   -0.1664   -2.8043 H   0  0  0  0  0  0  0  0  0  0  0  0
    9.6814   -1.7676   -2.1276 H   0  0  0  0  0  0  0  0  0  0  0  0
   11.9248   -1.4520   -2.8760 H   0  0  0  0  0  0  0  0  0  0  0  0
   13.5457   -0.9828   -1.3563 H   0  0  0  0  0  0  0  0  0  0  0  0
   13.0763    0.7741    0.3443 H   0  0  0  0  0  0  0  0  0  0  0  0
   11.3973    0.3069    0.5590 H   0  0  0  0  0  0  0  0  0  0  0  0
   13.9094   -1.3926    1.0718 H   0  0  0  0  0  0  0  0  0  0  0  0
   12.2817   -2.0175    1.3632 H   0  0  0  0  0  0  0  0  0  0  0  0
   13.5214    0.3802    2.8035 H   0  0  0  0  0  0  0  0  0  0  0  0
   13.4246   -1.3058    3.4529 H   0  0  0  0  0  0  0  0  0  0  0  0
   11.7289   -0.1430    4.5384 H   0  0  0  0  0  0  0  0  0  0  0  0
   10.9004   -1.1330    3.3079 H   0  0  0  0  0  0  0  0  0  0  0  0
    9.9447    0.6843    2.2559 H   0  0  0  0  0  0  0  0  0  0  0  0
   10.3743    1.4675    3.7851 H   0  0  0  0  0  0  0  0  0  0  0  0
   11.4475    1.7017    2.3569 H   0  0  0  0  0  0  0  0  0  0  0  0
  1  2  1  0
  2  3  1  0
  3  4  1  0
  4  5  1  0
  5  6  1  0
  1  6  1  0
  4  7  2  0
  7  8  1  0
  8  9  1  0
  9 10  1  0
  5 10  1  0
  9 11  1  0
 11 12  1  0
 12 13  1  0
 13 14  1  0
 10 14  1  0
 11 15  1  0
 15 16  1  0
 16 17  1  0
 12 17  1  0
  2 18  1  0
 12 19  1  1
 17 20  1  0
 20 21  1  0
 20 22  1  0
 22 23  1  0
 23 24  1  0
 24 25  1  0
 25 26  1  0
 25 27  1  0
  5 28  1  1
 18 29  1  0
 29 30  1  0
 29 31  2  0
 30 32  1  0
 32 33  1  0
 33 34  1  0
 34 35  1  0
 35 36  1  0
 36 37  1  0
 37 38  1  0
 38 39  2  0
 39 40  1  0
 40 41  1  0
 41 42  2  0
 42 43  1  0
 43 44  1  0
 44 45  1  0
 45 46  1  0
 46 47  1  0
  1 48  1  0
  1 49  1  0
  2 50  1  6
  3 51  1  0
  3 52  1  0
  6 53  1  0
  6 54  1  0
  7 55  1  0
  8 56  1  0
  8 57  1  0
  9 58  1  1
 10 59  1  6
 11 60  1  1
 13 61  1  0
 13 62  1  0
 14 63  1  0
 14 64  1  0
 15 65  1  0
 15 66  1  0
 16 67  1  0
 16 68  1  0
 17 69  1  1
 19 70  1  0
 19 71  1  0
 19 72  1  0
 20 73  1  6
 21 74  1  0
 21 75  1  0
 21 76  1  0
 22 77  1  0
 22 78  1  0
 23 79  1  0
 23 80  1  0
 24 81  1  0
 24 82  1  0
 25 83  1  0
 26 84  1  0
 26 85  1  0
 26 86  1  0
 27 87  1  0
 27 88  1  0
 27 89  1  0
 28 90  1  0
 28 91  1  0
 28 92  1  0
 30 93  1  0
 30 94  1  0
 32 95  1  0
 32 96  1  0
 33 97  1  0
 33 98  1  0
 34 99  1  0
 34100  1  0
 35101  1  0
 35102  1  0
 36103  1  0
 36104  1  0
 37105  1  0
 37106  1  0
 38107  1  0
 39108  1  0
 40109  1  0
 40110  1  0
 41111  1  0
 42112  1  0
 43113  1  0
 43114  1  0
 44115  1  0
 44116  1  0
 45117  1  0
 45118  1  0
 46119  1  0
 46120  1  0
 47121  1  0
 47122  1  0
 47123  1  0
M  END

