46505240
     RDKit          3D

 17 17  0  0  0  0  0  0  0  0999 V2000
   -2.1993    1.4891   -0.3901 O   0  0  0  0  0  0  0  0  0  0  0  0
   -0.8439    1.5205   -0.4119 C   0  0  0  0  0  0  0  0  0  0  0  0
   -0.3843    2.7022   -0.6978 O   0  0  0  0  0  0  0  0  0  0  0  0
    0.1500    0.5060   -0.1811 C   0  0  0  0  0  0  0  0  0  0  0  0
    1.5197    0.8734   -0.2829 C   0  0  0  0  0  0  0  0  0  0  0  0
    2.4667   -0.0749   -0.0674 C   0  0  0  0  0  0  0  0  0  0  0  0
    2.1754   -1.3823    0.2466 C   0  0  0  0  0  0  0  0  0  0  0  0
    0.8926   -1.6969    0.3350 N   0  0  0  0  0  0  0  0  0  0  0  0
   -0.1388   -0.7879    0.1297 C   0  0  0  0  0  0  0  0  0  0  0  0
   -1.4895   -1.2877    0.2629 C   0  0  0  0  0  0  0  0  0  0  0  0
   -2.6145   -0.5710    0.1046 O   0  0  0  0  0  0  0  0  0  0  0  0
   -1.5688   -2.5499    0.5638 O   0  0  0  0  0  0  0  0  0  0  0  0
   -2.7270    2.1857    0.1563 H   0  0  0  0  0  0  0  0  0  0  0  0
    1.7474    1.8950   -0.5283 H   0  0  0  0  0  0  0  0  0  0  0  0
    3.5253    0.1901   -0.1416 H   0  0  0  0  0  0  0  0  0  0  0  0
    2.9790   -2.1088    0.4109 H   0  0  0  0  0  0  0  0  0  0  0  0
   -3.4901   -0.9024    0.4912 H   0  0  0  0  0  0  0  0  0  0  0  0
  1  2  1  0
  2  3  2  0
  2  4  1  0
  4  5  2  0
  5  6  1  0
  6  7  2  0
  7  8  1  0
  8  9  2  0
  4  9  1  0
  9 10  1  0
 10 11  1  0
 10 12  2  0
  1 13  1  0
  5 14  1  0
  6 15  1  0
  7 16  1  0
 11 17  1  0
M  END

