46509026
     RDKit          3D

 83 87  0  0  0  0  0  0  0  0999 V2000
   -3.6065   -5.3676    0.1920 C   0  0  0  0  0  0  0  0  0  0  0  0
   -3.7635   -4.6335   -1.1199 C   0  0  0  0  0  0  0  0  0  0  0  0
   -3.5061   -3.2040   -0.8824 C   0  0  0  0  0  0  0  0  0  0  0  0
   -4.3422   -2.2115   -1.0847 C   0  0  0  0  0  0  0  0  0  0  0  0
   -5.7557   -2.3495   -1.6108 C   0  0  0  0  0  0  0  0  0  0  0  0
   -3.7117   -0.9613   -0.7329 C   0  0  0  0  0  0  0  0  0  0  0  0
   -4.1091    0.3756   -0.7582 C   0  0  0  0  0  0  0  0  0  0  0  0
   -3.2480    1.4945   -0.5427 C   0  0  0  0  0  0  0  0  0  0  0  0
   -3.7604    2.4277    0.3829 C   0  0  0  0  0  0  0  0  0  0  0  0
   -5.1247    2.4766    1.0542 C   0  0  0  0  0  0  0  0  0  0  0  0
   -5.1222    1.4271    2.1424 C   0  0  0  0  0  0  0  0  0  0  0  0
   -2.7907    3.3512    0.5725 C   0  0  0  0  0  0  0  0  0  0  0  0
   -2.9384    4.5584    1.4811 C   0  0  0  0  0  0  0  0  0  0  0  0
   -1.7021    2.9564   -0.2475 C   0  0  0  0  0  0  0  0  0  0  0  0
   -0.5430    3.7653   -0.0714 C   0  0  0  0  0  0  0  0  0  0  0  0
    0.7621    3.2601    0.1135 C   0  0  0  0  0  0  0  0  0  0  0  0
    0.8947    1.9385    0.3368 N   0  0  0  0  0  0  0  0  0  0  0  0
    2.1806    1.5763    0.4799 C   0  0  0  0  0  0  0  0  0  0  0  0
    2.5094    0.2503    0.7089 C   0  0  0  0  0  0  0  0  0  0  0  0
    1.7383   -0.8935    0.4311 C   0  0  0  0  0  0  0  0  0  0  0  0
    0.4222   -1.1160    0.5673 N   0  0  0  0  0  0  0  0  0  0  0  0
    0.1714   -2.3524    0.1211 C   0  0  0  0  0  0  0  0  0  0  0  0
   -1.0259   -3.0786    0.0163 C   0  0  0  0  0  0  0  0  0  0  0  0
   -2.2760   -2.6105   -0.3805 C   0  0  0  0  0  0  0  0  0  0  0  0
   -2.4649   -1.2696   -0.3144 N   0  0  0  0  0  0  0  0  0  0  0  0
    1.3752   -2.9518   -0.3157 C   0  0  0  0  0  0  0  0  0  0  0  0
    1.5892   -4.3378   -0.8847 C   0  0  0  0  0  0  0  0  0  0  0  0
    2.3659   -2.0290   -0.1186 C   0  0  0  0  0  0  0  0  0  0  0  0
    3.8311   -2.2578   -0.4125 C   0  0  0  0  0  0  0  0  0  0  0  0
    4.5106   -2.6442    0.8752 C   0  0  0  0  0  0  0  0  0  0  0  0
    5.9573   -2.8763    0.6643 C   0  0  0  0  0  0  0  0  0  0  0  0
    6.7511   -3.2375    1.7255 O   0  0  0  0  0  0  0  0  0  0  0  0
    6.4387   -2.7411   -0.4753 O   0  0  0  0  0  0  0  0  0  0  0  0
    2.9398    2.8056    0.3307 C   0  0  0  0  0  0  0  0  0  0  0  0
    4.4331    2.9544    0.4033 C   0  0  0  0  0  0  0  0  0  0  0  0
    5.1271    2.1414   -0.6696 C   0  0  0  0  0  0  0  0  0  0  0  0
    6.5844    2.3657   -0.5013 C   0  0  0  0  0  0  0  0  0  0  0  0
    7.1461    3.1749    0.4672 O   0  0  0  0  0  0  0  0  0  0  0  0
    7.3524    1.7690   -1.3061 O   0  0  0  0  0  0  0  0  0  0  0  0
    2.1054    3.8195    0.1114 C   0  0  0  0  0  0  0  0  0  0  0  0
    2.4291    5.2667   -0.1076 C   0  0  0  0  0  0  0  0  0  0  0  0
   -1.9934    1.8265   -0.9355 N   0  0  0  0  0  0  0  0  0  0  0  0
   -1.1494    1.1532   -2.0211 C   0  0  0  0  0  0  0  0  0  0  0  0
   -4.4926   -5.9878    0.4411 H   0  0  0  0  0  0  0  0  0  0  0  0
   -2.6993   -6.0154    0.2135 H   0  0  0  0  0  0  0  0  0  0  0  0
   -3.4834   -4.6547    1.0345 H   0  0  0  0  0  0  0  0  0  0  0  0
   -4.7605   -4.7912   -1.5724 H   0  0  0  0  0  0  0  0  0  0  0  0
   -3.0019   -5.0759   -1.8141 H   0  0  0  0  0  0  0  0  0  0  0  0
   -6.0816   -1.3874   -2.0206 H   0  0  0  0  0  0  0  0  0  0  0  0
   -6.4294   -2.7231   -0.8052 H   0  0  0  0  0  0  0  0  0  0  0  0
   -5.7748   -3.1123   -2.4112 H   0  0  0  0  0  0  0  0  0  0  0  0
   -5.1609    0.4938   -0.9480 H   0  0  0  0  0  0  0  0  0  0  0  0
   -5.3211    3.4892    1.3905 H   0  0  0  0  0  0  0  0  0  0  0  0
   -5.8332    2.2061    0.2442 H   0  0  0  0  0  0  0  0  0  0  0  0
   -4.2438    0.7467    2.0398 H   0  0  0  0  0  0  0  0  0  0  0  0
   -5.1460    1.8883    3.1667 H   0  0  0  0  0  0  0  0  0  0  0  0
   -6.0116    0.7502    2.0568 H   0  0  0  0  0  0  0  0  0  0  0  0
   -2.8588    4.2555    2.5313 H   0  0  0  0  0  0  0  0  0  0  0  0
   -3.9604    4.9587    1.2532 H   0  0  0  0  0  0  0  0  0  0  0  0
   -2.2469    5.3411    1.1633 H   0  0  0  0  0  0  0  0  0  0  0  0
   -0.5584    4.8426   -0.0467 H   0  0  0  0  0  0  0  0  0  0  0  0
    3.5135    0.1505    1.1463 H   0  0  0  0  0  0  0  0  0  0  0  0
   -0.3291   -0.4065    1.0024 H   0  0  0  0  0  0  0  0  0  0  0  0
   -1.0619   -4.1676    0.2422 H   0  0  0  0  0  0  0  0  0  0  0  0
    0.6603   -4.5994   -1.4223 H   0  0  0  0  0  0  0  0  0  0  0  0
    1.8097   -5.0457   -0.0750 H   0  0  0  0  0  0  0  0  0  0  0  0
    2.3830   -4.2642   -1.6410 H   0  0  0  0  0  0  0  0  0  0  0  0
    3.9264   -3.0150   -1.1881 H   0  0  0  0  0  0  0  0  0  0  0  0
    4.2331   -1.2603   -0.7097 H   0  0  0  0  0  0  0  0  0  0  0  0
    4.1043   -3.6100    1.2717 H   0  0  0  0  0  0  0  0  0  0  0  0
    4.3901   -1.9257    1.6983 H   0  0  0  0  0  0  0  0  0  0  0  0
    6.4390   -3.8264    2.5025 H   0  0  0  0  0  0  0  0  0  0  0  0
    4.7591    2.6028    1.4017 H   0  0  0  0  0  0  0  0  0  0  0  0
    4.7116    4.0240    0.3283 H   0  0  0  0  0  0  0  0  0  0  0  0
    4.9556    1.0573   -0.5224 H   0  0  0  0  0  0  0  0  0  0  0  0
    4.7784    2.4019   -1.6813 H   0  0  0  0  0  0  0  0  0  0  0  0
    7.3064    2.8301    1.4163 H   0  0  0  0  0  0  0  0  0  0  0  0
    1.5555    5.8546    0.2590 H   0  0  0  0  0  0  0  0  0  0  0  0
    2.6868    5.4604   -1.1516 H   0  0  0  0  0  0  0  0  0  0  0  0
    3.2868    5.5906    0.5500 H   0  0  0  0  0  0  0  0  0  0  0  0
   -0.5246    1.8402   -2.6057 H   0  0  0  0  0  0  0  0  0  0  0  0
   -1.7163    0.6868   -2.8238 H   0  0  0  0  0  0  0  0  0  0  0  0
   -0.4843    0.3856   -1.5985 H   0  0  0  0  0  0  0  0  0  0  0  0
  1  2  1  0
  2  3  1  0
  3  4  2  0
  4  5  1  0
  4  6  1  0
  6  7  2  0
  7  8  1  0
  8  9  2  0
  9 10  1  0
 10 11  1  0
  9 12  1  0
 12 13  1  0
 12 14  2  0
 14 15  1  0
 15 16  2  0
 16 17  1  0
 17 18  2  0
 18 19  1  0
 19 20  2  0
 20 21  1  0
 21 22  1  0
 22 23  2  0
 23 24  1  0
  3 24  1  0
 24 25  2  0
  6 25  1  0
 22 26  1  0
 26 27  1  0
 26 28  2  0
 20 28  1  0
 28 29  1  0
 29 30  1  0
 30 31  1  0
 31 32  1  0
 31 33  2  0
 18 34  1  0
 34 35  1  0
 35 36  1  0
 36 37  1  0
 37 38  1  0
 37 39  2  0
 34 40  2  0
 16 40  1  0
 40 41  1  0
 14 42  1  0
  8 42  1  0
 42 43  1  0
  1 44  1  0
  1 45  1  0
  1 46  1  0
  2 47  1  0
  2 48  1  0
  5 49  1  0
  5 50  1  0
  5 51  1  0
  7 52  1  0
 10 53  1  0
 10 54  1  0
 11 55  1  0
 11 56  1  0
 11 57  1  0
 13 58  1  0
 13 59  1  0
 13 60  1  0
 15 61  1  0
 19 62  1  0
 21 63  1  0
 23 64  1  0
 27 65  1  0
 27 66  1  0
 27 67  1  0
 29 68  1  0
 29 69  1  0
 30 70  1  0
 30 71  1  0
 32 72  1  0
 35 73  1  0
 35 74  1  0
 36 75  1  0
 36 76  1  0
 38 77  1  0
 41 78  1  0
 41 79  1  0
 41 80  1  0
 43 81  1  0
 43 82  1  0
 43 83  1  0
M  END

