46509064
     RDKit          3D

 15 14  0  0  0  0  0  0  0  0999 V2000
   -2.1323    0.2321   -0.2602 C   0  0  0  0  0  0  0  0  0  0  0  0
   -0.8732   -0.6292   -0.2596 C   0  0  0  0  0  0  0  0  0  0  0  0
    0.2880    0.3175   -0.0200 C   0  0  0  0  0  0  0  0  0  0  0  0
    1.6118   -0.4279    0.0026 C   0  0  0  0  0  0  0  0  0  0  0  0
    2.6187    0.5319    0.2295 N   0  0  0  0  0  4  0  0  0  0  0  0
    3.4569    1.3357    0.4020 C   0  0  0  0  0  3  0  0  0  0  0  0
   -2.9769   -0.2574   -0.7430 H   0  0  0  0  0  0  0  0  0  0  0  0
   -2.3069    0.5380    0.7868 H   0  0  0  0  0  0  0  0  0  0  0  0
   -1.9342    1.1786   -0.8376 H   0  0  0  0  0  0  0  0  0  0  0  0
   -0.7632   -1.2295   -1.1587 H   0  0  0  0  0  0  0  0  0  0  0  0
   -0.9001   -1.3180    0.6081 H   0  0  0  0  0  0  0  0  0  0  0  0
    0.3070    1.0693   -0.8079 H   0  0  0  0  0  0  0  0  0  0  0  0
    0.1672    0.7468    1.0069 H   0  0  0  0  0  0  0  0  0  0  0  0
    1.6273   -1.1695    0.8191 H   0  0  0  0  0  0  0  0  0  0  0  0
    1.8099   -0.9185   -0.9722 H   0  0  0  0  0  0  0  0  0  0  0  0
  1  2  1  0
  2  3  1  0
  3  4  1  0
  4  5  1  0
  5  6  3  0
  1  7  1  0
  1  8  1  0
  1  9  1  0
  2 10  1  0
  2 11  1  0
  3 12  1  0
  3 13  1  0
  4 14  1  0
  4 15  1  0
M  CHG  2   5   1   6  -1
M  END

