46508564
     RDKit          3D

 19 20  0  0  0  0  0  0  0  0999 V2000
    3.1244    0.9800   -0.0373 C   0  0  0  0  0  0  0  0  0  0  0  0
    0.6309   -1.7452   -0.0406 C   0  0  0  0  0  0  0  0  0  0  0  0
   -0.7122   -1.9919   -0.1164 C   0  0  0  0  0  0  0  0  0  0  0  0
    0.2559    0.5782   -0.2068 C   0  0  0  0  0  0  0  0  0  0  0  0
   -3.3170    0.4220   -0.4389 C   0  0  0  0  0  0  0  0  0  0  0  0
    1.1383   -0.4666   -0.0838 C   0  0  0  0  0  0  0  0  0  0  0  0
   -1.6119   -0.9574   -0.2400 C   0  0  0  0  0  0  0  0  0  0  0  0
   -1.0995    0.3211   -0.2829 C   0  0  0  0  0  0  0  0  0  0  0  0
   -2.9513   -0.8722   -0.3357 N   0  0  0  0  0  0  0  0  0  0  0  0
   -2.1836    1.1366   -0.4056 N   0  0  0  0  0  0  0  0  0  0  0  0
    2.5126   -0.2806   -0.0022 O   0  0  0  0  0  0  0  0  0  0  0  0
    2.7253    1.5855   -0.8905 H   0  0  0  0  0  0  0  0  0  0  0  0
    4.2197    0.8366   -0.1845 H   0  0  0  0  0  0  0  0  0  0  0  0
    3.0111    1.5336    0.9291 H   0  0  0  0  0  0  0  0  0  0  0  0
    1.2688   -2.6255    0.0559 H   0  0  0  0  0  0  0  0  0  0  0  0
   -1.1447   -3.0016   -0.0844 H   0  0  0  0  0  0  0  0  0  0  0  0
    0.6009    1.5931   -0.2450 H   0  0  0  0  0  0  0  0  0  0  0  0
   -4.3407    0.7818   -0.5299 H   0  0  0  0  0  0  0  0  0  0  0  0
   -2.1270    2.1725   -0.4646 H   0  0  0  0  0  0  0  0  0  0  0  0
  2  3  2  0
  2  6  1  0
  4  6  2  0
  3  7  1  0
  4  8  1  0
  7  8  2  0
  5  9  2  0
  7  9  1  0
  5 10  1  0
  8 10  1  0
  1 11  1  0
  6 11  1  0
  1 12  1  0
  1 13  1  0
  1 14  1  0
  2 15  1  0
  3 16  1  0
  4 17  1  0
  5 18  1  0
 10 19  1  0
M  END

