46509191
     RDKit          3D

 62 67  0  0  1  0  0  0  0  0999 V2000
   -6.2433    3.3137    0.7871 C   0  0  0  0  0  0  0  0  0  0  0  0
   -5.3362    4.1387    0.1649 C   0  0  0  0  0  0  0  0  0  0  0  0
   -5.7880    2.1748    1.4156 C   0  0  0  0  0  0  0  0  0  0  0  0
    8.4901   -1.5542    0.0636 C   0  0  0  0  0  0  0  0  0  0  0  0
    8.4666   -0.2219    0.4579 C   0  0  0  0  0  0  0  0  0  0  0  0
   -3.9937    3.8218    0.1758 C   0  0  0  0  0  0  0  0  0  0  0  0
   -4.4299    1.8681    1.4181 C   0  0  0  0  0  0  0  0  0  0  0  0
    7.3858   -2.0598   -0.5710 C   0  0  0  0  0  0  0  0  0  0  0  0
    7.3606    0.5572    0.2124 C   0  0  0  0  0  0  0  0  0  0  0  0
    4.0609   -1.0097   -1.7003 C   0  0  0  0  0  0  0  0  0  0  0  0
    5.1835   -1.8181   -1.4569 C   0  0  0  0  0  0  0  0  0  0  0  0
   -2.8972   -3.3415    0.2497 C   0  0  0  0  0  0  0  0  0  0  0  0
   -4.5877   -1.7565   -0.0691 C   0  0  0  0  0  0  0  0  0  0  0  0
   -3.8800   -4.3328    0.3799 C   0  0  0  0  0  0  0  0  0  0  0  0
   -5.5751   -2.7445    0.0602 C   0  0  0  0  0  0  0  0  0  0  0  0
    5.1384    0.8222   -0.6749 C   0  0  0  0  0  0  0  0  0  0  0  0
   -2.0867    2.3310    0.8208 C   0  0  0  0  0  0  0  0  0  0  0  0
    2.8631    1.1378   -1.5606 C   0  0  0  0  0  0  0  0  0  0  0  0
   -0.9361   -1.2488    0.0424 C   0  0  0  0  0  0  0  0  0  0  0  0
   -3.5098    2.6858    0.7986 C   0  0  0  0  0  0  0  0  0  0  0  0
    4.0411    0.3039   -1.3099 C   0  0  0  0  0  0  0  0  0  0  0  0
    6.2703   -1.2645   -0.8156 C   0  0  0  0  0  0  0  0  0  0  0  0
   -3.2411   -2.0286    0.0214 C   0  0  0  0  0  0  0  0  0  0  0  0
    6.2713    0.0403   -0.4191 C   0  0  0  0  0  0  0  0  0  0  0  0
   -5.2178   -4.0483    0.2874 C   0  0  0  0  0  0  0  0  0  0  0  0
   -1.7116    1.4678   -0.3699 C   0  0  1  0  0  0  0  0  0  0  0  0
   -2.2218   -0.9823   -0.1036 C   0  0  0  0  0  0  0  0  0  0  0  0
   -0.2672    1.1178   -0.3328 C   0  0  0  0  0  0  0  0  0  0  0  0
    1.4992   -0.2749   -0.0161 C   0  0  0  0  0  0  0  0  0  0  0  0
    1.9672    1.0731   -0.3477 C   0  0  2  0  0  0  0  0  0  0  0  0
   -2.5854    0.3382   -0.4633 N   0  0  0  0  0  0  0  0  0  0  0  0
    0.7985    1.8500   -0.4454 N   0  0  0  0  0  0  0  0  0  0  0  0
    0.0781   -0.2252   -0.0698 N   0  0  0  0  0  0  0  0  0  0  0  0
   -6.1859   -5.0318    0.4167 O   0  0  0  0  0  0  0  0  0  0  0  0
    2.1493   -1.3168    0.2701 O   0  0  0  0  0  0  0  0  0  0  0  0
    1.9675    1.4746    1.8522 O   0  0  0  0  0  0  0  0  0  0  0  0
    2.7035    1.5141    0.7817 O   0  0  0  0  0  0  0  0  0  0  0  0
   -7.3162    3.5413    0.7941 H   0  0  0  0  0  0  0  0  0  0  0  0
   -5.6768    5.0244   -0.3256 H   0  0  0  0  0  0  0  0  0  0  0  0
   -6.5067    1.5279    1.9044 H   0  0  0  0  0  0  0  0  0  0  0  0
    9.3479   -2.1981    0.2418 H   0  0  0  0  0  0  0  0  0  0  0  0
    9.3368    0.1663    0.9548 H   0  0  0  0  0  0  0  0  0  0  0  0
   -3.2969    4.4767   -0.3149 H   0  0  0  0  0  0  0  0  0  0  0  0
   -4.1027    0.9747    1.9151 H   0  0  0  0  0  0  0  0  0  0  0  0
    7.4119   -3.1020   -0.8760 H   0  0  0  0  0  0  0  0  0  0  0  0
    7.3467    1.5984    0.5224 H   0  0  0  0  0  0  0  0  0  0  0  0
    3.2432   -1.5080   -2.2142 H   0  0  0  0  0  0  0  0  0  0  0  0
    5.2189   -2.8487   -1.7545 H   0  0  0  0  0  0  0  0  0  0  0  0
   -1.8675   -3.6401    0.3325 H   0  0  0  0  0  0  0  0  0  0  0  0
   -4.9094   -0.7336   -0.2421 H   0  0  0  0  0  0  0  0  0  0  0  0
   -3.5955   -5.3637    0.5598 H   0  0  0  0  0  0  0  0  0  0  0  0
   -6.6298   -2.4693   -0.0212 H   0  0  0  0  0  0  0  0  0  0  0  0
    5.1752    1.8587   -0.3441 H   0  0  0  0  0  0  0  0  0  0  0  0
   -1.7824    1.7813    1.7302 H   0  0  0  0  0  0  0  0  0  0  0  0
   -1.4879    3.2816    0.7449 H   0  0  0  0  0  0  0  0  0  0  0  0
    3.1761    2.1542   -1.8086 H   0  0  0  0  0  0  0  0  0  0  0  0
    2.3008    0.7660   -2.4636 H   0  0  0  0  0  0  0  0  0  0  0  0
   -0.5719   -2.2422    0.2542 H   0  0  0  0  0  0  0  0  0  0  0  0
   -1.9111    2.0939   -1.2919 H   0  0  0  0  0  0  0  0  0  0  0  0
   -3.5842    0.5019   -0.8441 H   0  0  0  0  0  0  0  0  0  0  0  0
   -7.1537   -4.7960    0.3449 H   0  0  0  0  0  0  0  0  0  0  0  0
    1.8345    2.3837    2.2513 H   0  0  0  0  0  0  0  0  0  0  0  0
  1  2  2  0
  1  3  1  0
  4  5  2  0
  2  6  1  0
  3  7  2  0
  4  8  1  0
  5  9  1  0
 10 11  2  0
 12 14  2  0
 13 15  1  0
  6 20  2  0
  7 20  1  0
 17 20  1  0
 10 21  1  0
 16 21  2  0
 18 21  1  0
  8 22  2  0
 11 22  1  0
 12 23  1  0
 13 23  2  0
  9 24  2  0
 16 24  1  0
 22 24  1  0
 14 25  1  0
 15 25  2  0
 26 17  1  0
 19 27  2  0
 23 27  1  0
 26 28  1  0
 30 18  1  0
 29 30  1  0
 26 31  1  0
 27 31  1  0
 28 32  2  0
 30 32  1  0
 19 33  1  0
 28 33  1  0
 29 33  1  0
 25 34  1  0
 29 35  2  0
 30 37  1  1
 36 37  1  0
  1 38  1  0
  2 39  1  0
  3 40  1  0
  4 41  1  0
  5 42  1  0
  6 43  1  0
  7 44  1  0
  8 45  1  0
  9 46  1  0
 10 47  1  0
 11 48  1  0
 12 49  1  0
 13 50  1  0
 14 51  1  0
 15 52  1  0
 16 53  1  0
 17 54  1  0
 17 55  1  0
 18 56  1  0
 18 57  1  0
 19 58  1  0
 26 59  1  6
 31 60  1  0
 34 61  1  0
 36 62  1  0
M  END

