46508860
     RDKit          3D

 87 90  0  0  1  0  0  0  0  0999 V2000
    5.1642    4.6529    0.1326 C   0  0  0  0  0  0  0  0  0  0  0  0
    6.1849    3.7387   -0.2064 O   0  0  0  0  0  0  0  0  0  0  0  0
    5.9266    2.3910   -0.4063 C   0  0  0  0  0  0  0  0  0  0  0  0
    4.6875    1.8237   -0.2993 C   0  0  0  0  0  0  0  0  0  0  0  0
    4.4423    0.4730   -0.5012 C   0  0  0  0  0  0  0  0  0  0  0  0
    5.4963   -0.3494   -0.8277 C   0  0  0  0  0  0  0  0  0  0  0  0
    6.7588    0.1856   -0.9446 C   0  0  0  0  0  0  0  0  0  0  0  0
    7.8399   -0.6205   -1.2739 O   0  0  0  0  0  0  0  0  0  0  0  0
    7.6108   -1.9996   -1.4850 C   0  0  0  0  0  0  0  0  0  0  0  0
    6.9750    1.5525   -0.7350 C   0  0  0  0  0  0  0  0  0  0  0  0
    8.2610    2.0556   -0.8610 O   0  0  0  0  0  0  0  0  0  0  0  0
    8.7160    2.5309   -2.1142 C   0  0  0  0  0  0  0  0  0  0  0  0
    3.0789   -0.1161   -0.3861 C   0  0  0  0  0  0  0  0  0  0  0  0
    2.2653    0.8666    0.1879 F   0  0  0  0  0  0  0  0  0  0  0  0
    2.6365   -0.3478   -1.6737 F   0  0  0  0  0  0  0  0  0  0  0  0
    3.0955   -1.3488    0.4287 C   0  0  0  0  0  0  0  0  0  0  0  0
    4.1953   -1.7064    0.9439 O   0  0  0  0  0  0  0  0  0  0  0  0
    1.9522   -2.1447    0.6607 N   0  0  0  0  0  0  0  0  0  0  0  0
    2.0578   -3.3527    1.4926 C   0  0  0  0  0  0  0  0  0  0  0  0
    1.9704   -4.5204    0.5349 C   0  0  0  0  0  0  0  0  0  0  0  0
    0.7818   -4.3331   -0.3593 C   0  0  0  0  0  0  0  0  0  0  0  0
   -0.1117   -3.2057    0.1126 C   0  0  0  0  0  0  0  0  0  0  0  0
    0.6410   -1.8758    0.1320 C   0  0  1  0  0  0  0  0  0  0  0  0
   -0.1454   -0.9784    1.0276 C   0  0  0  0  0  0  0  0  0  0  0  0
    0.3299   -0.5065    2.1044 O   0  0  0  0  0  0  0  0  0  0  0  0
   -1.4423   -0.6307    0.7005 O   0  0  0  0  0  0  0  0  0  0  0  0
   -2.2713    0.2138    1.4829 C   0  0  1  0  0  0  0  0  0  0  0  0
   -2.5499    1.5361    0.8614 C   0  0  0  0  0  0  0  0  0  0  0  0
   -3.2169    1.5432   -0.4596 C   0  0  0  0  0  0  0  0  0  0  0  0
   -3.3763    3.0107   -0.8932 C   0  0  0  0  0  0  0  0  0  0  0  0
   -4.1846    3.7915    0.0602 C   0  0  0  0  0  0  0  0  0  0  0  0
   -5.5468    3.8579   -0.0707 C   0  0  0  0  0  0  0  0  0  0  0  0
   -6.3185    4.6006    0.8251 C   0  0  0  0  0  0  0  0  0  0  0  0
   -5.7201    5.2709    1.8455 C   0  0  0  0  0  0  0  0  0  0  0  0
   -4.3462    5.2153    1.9926 C   0  0  0  0  0  0  0  0  0  0  0  0
   -3.5874    4.4723    1.0937 C   0  0  0  0  0  0  0  0  0  0  0  0
   -3.3957   -0.4731    2.1591 C   0  0  0  0  0  0  0  0  0  0  0  0
   -4.3936   -1.1844    1.3292 C   0  0  0  0  0  0  0  0  0  0  0  0
   -3.8128   -2.2872    0.4586 C   0  0  0  0  0  0  0  0  0  0  0  0
   -4.9377   -2.9212   -0.3021 C   0  0  0  0  0  0  0  0  0  0  0  0
   -5.6354   -3.9923    0.1807 C   0  0  0  0  0  0  0  0  0  0  0  0
   -6.6308   -4.5070   -0.5513 N   0  0  0  0  0  0  0  0  0  0  0  0
   -7.0027   -4.0286   -1.7649 C   0  0  0  0  0  0  0  0  0  0  0  0
   -6.3093   -2.9518   -2.2611 C   0  0  0  0  0  0  0  0  0  0  0  0
   -5.2747   -2.4005   -1.5236 C   0  0  0  0  0  0  0  0  0  0  0  0
    5.6014    5.5971    0.5506 H   0  0  0  0  0  0  0  0  0  0  0  0
    4.5866    4.9448   -0.7709 H   0  0  0  0  0  0  0  0  0  0  0  0
    4.4163    4.2081    0.8441 H   0  0  0  0  0  0  0  0  0  0  0  0
    3.8475    2.4552   -0.0454 H   0  0  0  0  0  0  0  0  0  0  0  0
    5.4007   -1.4197   -1.0090 H   0  0  0  0  0  0  0  0  0  0  0  0
    7.1787   -2.4965   -0.5819 H   0  0  0  0  0  0  0  0  0  0  0  0
    8.5415   -2.5449   -1.7334 H   0  0  0  0  0  0  0  0  0  0  0  0
    6.9212   -2.1351   -2.3452 H   0  0  0  0  0  0  0  0  0  0  0  0
    8.9592    1.7115   -2.8137 H   0  0  0  0  0  0  0  0  0  0  0  0
    9.6612    3.1235   -1.9922 H   0  0  0  0  0  0  0  0  0  0  0  0
    7.9940    3.2057   -2.5983 H   0  0  0  0  0  0  0  0  0  0  0  0
    1.2145   -3.3787    2.2267 H   0  0  0  0  0  0  0  0  0  0  0  0
    2.9846   -3.3620    2.0971 H   0  0  0  0  0  0  0  0  0  0  0  0
    2.9364   -4.5474   -0.0340 H   0  0  0  0  0  0  0  0  0  0  0  0
    1.9361   -5.5005    1.0918 H   0  0  0  0  0  0  0  0  0  0  0  0
    1.0678   -4.0838   -1.4071 H   0  0  0  0  0  0  0  0  0  0  0  0
    0.1680   -5.2584   -0.3007 H   0  0  0  0  0  0  0  0  0  0  0  0
   -0.9630   -3.0722   -0.5556 H   0  0  0  0  0  0  0  0  0  0  0  0
   -0.5078   -3.3695    1.1356 H   0  0  0  0  0  0  0  0  0  0  0  0
    0.6631   -1.3901   -0.8579 H   0  0  0  0  0  0  0  0  0  0  0  0
   -1.5613    0.4837    2.3649 H   0  0  0  0  0  0  0  0  0  0  0  0
   -3.1114    2.1375    1.6275 H   0  0  0  0  0  0  0  0  0  0  0  0
   -1.5850    2.1110    0.7440 H   0  0  0  0  0  0  0  0  0  0  0  0
   -4.2143    1.1234   -0.5294 H   0  0  0  0  0  0  0  0  0  0  0  0
   -2.5923    1.0022   -1.2100 H   0  0  0  0  0  0  0  0  0  0  0  0
   -3.8654    3.0690   -1.8860 H   0  0  0  0  0  0  0  0  0  0  0  0
   -2.3454    3.3934   -1.0139 H   0  0  0  0  0  0  0  0  0  0  0  0
   -6.1031    3.3536   -0.8542 H   0  0  0  0  0  0  0  0  0  0  0  0
   -7.3957    4.6583    0.7285 H   0  0  0  0  0  0  0  0  0  0  0  0
   -6.3177    5.8505    2.5497 H   0  0  0  0  0  0  0  0  0  0  0  0
   -3.9138    5.7643    2.8178 H   0  0  0  0  0  0  0  0  0  0  0  0
   -2.5094    4.4638    1.2563 H   0  0  0  0  0  0  0  0  0  0  0  0
   -2.9518   -1.1821    2.9075 H   0  0  0  0  0  0  0  0  0  0  0  0
   -3.9446    0.2945    2.7515 H   0  0  0  0  0  0  0  0  0  0  0  0
   -5.0399   -1.7610    2.0774 H   0  0  0  0  0  0  0  0  0  0  0  0
   -5.1065   -0.5383    0.8253 H   0  0  0  0  0  0  0  0  0  0  0  0
   -3.1053   -1.9094   -0.2973 H   0  0  0  0  0  0  0  0  0  0  0  0
   -3.2836   -3.0172    1.0909 H   0  0  0  0  0  0  0  0  0  0  0  0
   -5.3634   -4.3983    1.1458 H   0  0  0  0  0  0  0  0  0  0  0  0
   -7.8271   -4.4995   -2.3103 H   0  0  0  0  0  0  0  0  0  0  0  0
   -6.5806   -2.5399   -3.2338 H   0  0  0  0  0  0  0  0  0  0  0  0
   -4.7478   -1.5467   -1.9516 H   0  0  0  0  0  0  0  0  0  0  0  0
  1  2  1  0
  2  3  1  0
  3  4  2  0
  4  5  1  0
  5  6  2  0
  6  7  1  0
  7  8  1  0
  8  9  1  0
  7 10  2  0
  3 10  1  0
 10 11  1  0
 11 12  1  0
  5 13  1  0
 13 14  1  0
 13 15  1  0
 13 16  1  0
 16 17  2  0
 16 18  1  0
 18 19  1  0
 19 20  1  0
 20 21  1  0
 21 22  1  0
 22 23  1  0
 18 23  1  0
 23 24  1  0
 24 25  2  0
 24 26  1  0
 27 26  1  0
 27 28  1  0
 28 29  1  0
 29 30  1  0
 30 31  1  0
 31 32  2  0
 32 33  1  0
 33 34  2  0
 34 35  1  0
 35 36  2  0
 31 36  1  0
 27 37  1  0
 37 38  1  0
 38 39  1  0
 39 40  1  0
 40 41  2  0
 41 42  1  0
 42 43  2  0
 43 44  1  0
 44 45  2  0
 40 45  1  0
  1 46  1  0
  1 47  1  0
  1 48  1  0
  4 49  1  0
  6 50  1  0
  9 51  1  0
  9 52  1  0
  9 53  1  0
 12 54  1  0
 12 55  1  0
 12 56  1  0
 19 57  1  0
 19 58  1  0
 20 59  1  0
 20 60  1  0
 21 61  1  0
 21 62  1  0
 22 63  1  0
 22 64  1  0
 23 65  1  6
 27 66  1  1
 28 67  1  0
 28 68  1  0
 29 69  1  0
 29 70  1  0
 30 71  1  0
 30 72  1  0
 32 73  1  0
 33 74  1  0
 34 75  1  0
 35 76  1  0
 36 77  1  0
 37 78  1  0
 37 79  1  0
 38 80  1  0
 38 81  1  0
 39 82  1  0
 39 83  1  0
 41 84  1  0
 43 85  1  0
 44 86  1  0
 45 87  1  0
M  END

