46506118
     RDKit          3D

101106  0  0  1  0  0  0  0  0999 V2000
    1.9350    0.5571    0.8523 C   0  0  1  0  0  0  0  0  0  0  0  0
    0.7109    0.9182    0.1238 C   0  0  1  0  0  0  0  0  0  0  0  0
    2.3651   -0.7826    0.2972 C   0  0  1  0  0  0  0  0  0  0  0  0
    3.1514    1.3746    0.6467 C   0  0  0  0  0  0  0  0  0  0  0  0
   -0.3884    0.0570    0.7599 C   0  0  1  0  0  0  0  0  0  0  0  0
    0.2742    2.3363    0.2198 C   0  0  0  0  0  0  0  0  0  0  0  0
    3.7079   -0.9334    1.0332 C   0  0  2  0  0  0  0  0  0  0  0  0
    1.3534   -1.7865    0.6755 C   0  0  0  0  0  0  0  0  0  0  0  0
    2.6385   -0.7719   -1.1658 C   0  0  0  0  0  0  0  0  0  0  0  0
    4.2136    0.4395    1.2589 C   0  0  1  0  0  0  0  0  0  0  0  0
   -1.6285    0.1182   -0.1292 C   0  0  2  0  0  0  0  0  0  0  0  0
    0.0356   -1.2951    1.1226 C   0  0  0  0  0  0  0  0  0  0  0  0
   -0.9741    2.4871   -0.6582 C   0  0  0  0  0  0  0  0  0  0  0  0
    4.4519   -1.8145    0.2824 O   0  0  0  0  0  0  0  0  0  0  0  0
    5.5293    0.7789    0.9466 N   0  0  0  0  0  4  0  0  0  0  0  0
   -2.0367    1.5632   -0.1914 C   0  0  1  0  0  0  0  0  0  0  0  0
   -2.7302   -0.7225    0.3745 C   0  0  0  0  0  0  0  0  0  0  0  0
   -1.1588   -0.3608   -1.5099 C   0  0  0  0  0  0  0  0  0  0  0  0
    4.7326   -3.1150    0.6661 C   0  0  0  0  0  0  0  0  0  0  0  0
    6.2943   -0.0972    0.0966 C   0  0  0  0  0  0  0  0  0  0  0  0
    5.6994    2.1260    0.3883 C   0  0  0  0  0  0  0  0  0  0  0  0
    6.3235    0.7960    2.1977 C   0  0  0  0  0  0  0  0  0  0  0  0
   -3.2251    1.6117   -1.1221 C   0  0  0  0  0  0  0  0  0  0  0  0
   -4.1033   -0.1972    0.3991 C   0  0  1  0  0  0  0  0  0  0  0  0
    5.5416   -3.9636   -0.2263 C   0  0  0  0  0  0  0  0  0  0  0  0
    4.3097   -3.5673    1.7501 O   0  0  0  0  0  0  0  0  0  0  0  0
    7.6165    0.6276   -0.2281 C   0  0  0  0  0  0  0  0  0  0  0  0
    5.9352    2.1238   -1.0960 C   0  0  0  0  0  0  0  0  0  0  0  0
   -4.3923    1.0487   -0.3337 C   0  0  1  0  0  0  0  0  0  0  0  0
   -5.0456   -1.2382   -0.0124 N   0  0  0  0  0  4  0  0  0  0  0  0
    7.3951    1.6863   -1.2896 C   0  0  0  0  0  0  0  0  0  0  0  0
   -4.7617    2.1283    0.5436 O   0  0  0  0  0  0  0  0  0  0  0  0
   -5.1538   -1.3935   -1.4281 C   0  0  0  0  0  0  0  0  0  0  0  0
   -6.3125   -0.9723    0.6461 C   0  0  0  0  0  0  0  0  0  0  0  0
   -4.5976   -2.5267    0.5424 C   0  0  0  0  0  0  0  0  0  0  0  0
   -5.9174    2.8604    0.3834 C   0  0  0  0  0  0  0  0  0  0  0  0
   -6.6008   -1.3303   -1.9061 C   0  0  0  0  0  0  0  0  0  0  0  0
   -7.3869   -1.9474    0.3067 C   0  0  0  0  0  0  0  0  0  0  0  0
   -6.3043    3.9752    1.2877 C   0  0  0  0  0  0  0  0  0  0  0  0
   -6.6739    2.5622   -0.5781 O   0  0  0  0  0  0  0  0  0  0  0  0
   -7.3313   -2.4307   -1.1313 C   0  0  0  0  0  0  0  0  0  0  0  0
    1.7244    0.4074    1.9328 H   0  0  0  0  0  0  0  0  0  0  0  0
    0.7076    0.6326   -0.9540 H   0  0  0  0  0  0  0  0  0  0  0  0
    3.0220    2.3003    1.2816 H   0  0  0  0  0  0  0  0  0  0  0  0
    3.3289    1.5981   -0.3937 H   0  0  0  0  0  0  0  0  0  0  0  0
   -0.6849    0.6467    1.6799 H   0  0  0  0  0  0  0  0  0  0  0  0
    0.0258    2.5908    1.2521 H   0  0  0  0  0  0  0  0  0  0  0  0
    1.0486    2.9929   -0.2358 H   0  0  0  0  0  0  0  0  0  0  0  0
    3.4054   -1.4805    1.9777 H   0  0  0  0  0  0  0  0  0  0  0  0
    1.2366   -2.4919   -0.2026 H   0  0  0  0  0  0  0  0  0  0  0  0
    1.8149   -2.4532    1.4655 H   0  0  0  0  0  0  0  0  0  0  0  0
    1.9572   -1.5174   -1.6717 H   0  0  0  0  0  0  0  0  0  0  0  0
    2.5688    0.1921   -1.6602 H   0  0  0  0  0  0  0  0  0  0  0  0
    3.6693   -1.1708   -1.3991 H   0  0  0  0  0  0  0  0  0  0  0  0
    4.0450    0.6334    2.3696 H   0  0  0  0  0  0  0  0  0  0  0  0
   -0.7475   -2.0214    0.7462 H   0  0  0  0  0  0  0  0  0  0  0  0
   -0.0284   -1.4275    2.2449 H   0  0  0  0  0  0  0  0  0  0  0  0
   -1.3487    3.5357   -0.4776 H   0  0  0  0  0  0  0  0  0  0  0  0
   -0.7182    2.4360   -1.7148 H   0  0  0  0  0  0  0  0  0  0  0  0
   -2.3641    1.8698    0.8113 H   0  0  0  0  0  0  0  0  0  0  0  0
   -2.7100   -1.6855   -0.2186 H   0  0  0  0  0  0  0  0  0  0  0  0
   -2.4233   -1.0672    1.4082 H   0  0  0  0  0  0  0  0  0  0  0  0
   -0.3974   -1.1487   -1.4140 H   0  0  0  0  0  0  0  0  0  0  0  0
   -0.9129    0.4603   -2.1794 H   0  0  0  0  0  0  0  0  0  0  0  0
   -2.0695   -0.8625   -1.9505 H   0  0  0  0  0  0  0  0  0  0  0  0
    5.8555   -0.3495   -0.8595 H   0  0  0  0  0  0  0  0  0  0  0  0
    6.6695   -0.9826    0.6916 H   0  0  0  0  0  0  0  0  0  0  0  0
    6.6096    2.6355    0.8288 H   0  0  0  0  0  0  0  0  0  0  0  0
    4.8672    2.7933    0.5990 H   0  0  0  0  0  0  0  0  0  0  0  0
    6.8274   -0.1670    2.3615 H   0  0  0  0  0  0  0  0  0  0  0  0
    7.0044    1.6430    2.2486 H   0  0  0  0  0  0  0  0  0  0  0  0
    5.6063    0.9194    3.0612 H   0  0  0  0  0  0  0  0  0  0  0  0
   -3.4161    2.6993   -1.3246 H   0  0  0  0  0  0  0  0  0  0  0  0
   -3.0592    1.1428   -2.0889 H   0  0  0  0  0  0  0  0  0  0  0  0
   -4.3812   -0.0050    1.4825 H   0  0  0  0  0  0  0  0  0  0  0  0
    4.9562   -4.2708   -1.1340 H   0  0  0  0  0  0  0  0  0  0  0  0
    5.8826   -4.8994    0.2635 H   0  0  0  0  0  0  0  0  0  0  0  0
    6.4851   -3.4505   -0.5692 H   0  0  0  0  0  0  0  0  0  0  0  0
    8.2619   -0.1570   -0.6771 H   0  0  0  0  0  0  0  0  0  0  0  0
    8.1145    0.9939    0.6667 H   0  0  0  0  0  0  0  0  0  0  0  0
    5.7821    3.1416   -1.4627 H   0  0  0  0  0  0  0  0  0  0  0  0
    5.3359    1.4388   -1.6807 H   0  0  0  0  0  0  0  0  0  0  0  0
   -5.2208    0.9803   -1.0689 H   0  0  0  0  0  0  0  0  0  0  0  0
    8.0217    2.5702   -1.0601 H   0  0  0  0  0  0  0  0  0  0  0  0
    7.5774    1.3324   -2.3046 H   0  0  0  0  0  0  0  0  0  0  0  0
   -4.5902   -0.6911   -2.0397 H   0  0  0  0  0  0  0  0  0  0  0  0
   -4.8012   -2.4153   -1.7605 H   0  0  0  0  0  0  0  0  0  0  0  0
   -6.0995   -1.0968    1.7475 H   0  0  0  0  0  0  0  0  0  0  0  0
   -6.6606    0.0677    0.5421 H   0  0  0  0  0  0  0  0  0  0  0  0
   -5.4669   -3.1235    0.8897 H   0  0  0  0  0  0  0  0  0  0  0  0
   -3.9284   -2.4245    1.3927 H   0  0  0  0  0  0  0  0  0  0  0  0
   -4.1210   -3.1454   -0.2467 H   0  0  0  0  0  0  0  0  0  0  0  0
   -7.0959   -0.3925   -1.6616 H   0  0  0  0  0  0  0  0  0  0  0  0
   -6.6284   -1.5023   -2.9827 H   0  0  0  0  0  0  0  0  0  0  0  0
   -8.3789   -1.4126    0.3949 H   0  0  0  0  0  0  0  0  0  0  0  0
   -7.4745   -2.8009    1.0125 H   0  0  0  0  0  0  0  0  0  0  0  0
   -7.3656    4.2241    1.1470 H   0  0  0  0  0  0  0  0  0  0  0  0
   -6.0193    3.8031    2.3317 H   0  0  0  0  0  0  0  0  0  0  0  0
   -5.7277    4.8752    0.9351 H   0  0  0  0  0  0  0  0  0  0  0  0
   -6.7278   -3.3573   -1.2267 H   0  0  0  0  0  0  0  0  0  0  0  0
   -8.3353   -2.5157   -1.5898 H   0  0  0  0  0  0  0  0  0  0  0  0
  1  2  1  0
  1  3  1  0
  1  4  1  0
  2  5  1  0
  2  6  1  0
  3  7  1  0
  3  8  1  0
  3  9  1  6
  4 10  1  0
  5 11  1  0
  5 12  1  0
  6 13  1  0
  7 14  1  0
 10 15  1  0
 11 16  1  0
 11 17  1  0
 11 18  1  6
 14 19  1  0
 15 20  1  0
 15 21  1  0
 15 22  1  0
 16 23  1  0
 17 24  1  0
 19 25  1  0
 19 26  2  0
 20 27  1  0
 21 28  1  0
 23 29  1  0
 24 30  1  0
 27 31  1  0
 29 32  1  0
 30 33  1  0
 30 34  1  0
 30 35  1  0
 32 36  1  0
 33 37  1  0
 34 38  1  0
 36 39  1  0
 36 40  2  0
 37 41  1  0
  7 10  1  0
  8 12  1  0
 13 16  1  0
 24 29  1  0
 28 31  1  0
 38 41  1  0
  1 42  1  1
  2 43  1  6
  4 44  1  0
  4 45  1  0
  5 46  1  1
  6 47  1  0
  6 48  1  0
  7 49  1  1
  8 50  1  0
  8 51  1  0
  9 52  1  0
  9 53  1  0
  9 54  1  0
 10 55  1  1
 12 56  1  0
 12 57  1  0
 13 58  1  0
 13 59  1  0
 16 60  1  1
 17 61  1  0
 17 62  1  0
 18 63  1  0
 18 64  1  0
 18 65  1  0
 20 66  1  0
 20 67  1  0
 21 68  1  0
 21 69  1  0
 22 70  1  0
 22 71  1  0
 22 72  1  0
 23 73  1  0
 23 74  1  0
 24 75  1  1
 25 76  1  0
 25 77  1  0
 25 78  1  0
 27 79  1  0
 27 80  1  0
 28 81  1  0
 28 82  1  0
 29 83  1  6
 31 84  1  0
 31 85  1  0
 33 86  1  0
 33 87  1  0
 34 88  1  0
 34 89  1  0
 35 90  1  0
 35 91  1  0
 35 92  1  0
 37 93  1  0
 37 94  1  0
 38 95  1  0
 38 96  1  0
 39 97  1  0
 39 98  1  0
 39 99  1  0
 41100  1  0
 41101  1  0
M  CHG  2  15   1  30   1
M  END

