46506718
     RDKit          3D

 55 58  0  0  1  0  0  0  0  0999 V2000
    2.5808    1.4088    0.8664 C   0  0  0  0  0  0  0  0  0  0  0  0
    4.0514    1.5670    0.6792 C   0  0  0  0  0  0  0  0  0  0  0  0
    4.8523    0.3291    0.6730 C   0  0  1  0  0  0  0  0  0  0  0  0
    4.1740   -0.9261    0.2187 C   0  0  0  0  0  0  0  0  0  0  0  0
    2.7112   -0.9110    0.4042 C   0  0  0  0  0  0  0  0  0  0  0  0
    2.0955   -1.9360    0.9234 C   0  0  0  0  0  0  0  0  0  0  0  0
    0.6376   -2.0162    1.1495 C   0  0  0  0  0  0  0  0  0  0  0  0
   -0.1877    0.8864   -1.0927 C   0  0  0  0  0  0  0  0  0  0  0  0
   -1.6011    1.2381   -0.6161 C   0  0  0  0  0  0  0  0  0  0  0  0
    0.5333    0.2878    0.1039 C   0  0  2  0  0  0  0  0  0  0  0  0
   -2.5959   -0.9087   -1.3760 C   0  0  0  0  0  0  0  0  0  0  0  0
    2.0002    0.2967   -0.0184 C   0  0  1  0  0  0  0  0  0  0  0  0
    2.4480    0.7076   -1.4414 C   0  0  0  0  0  0  0  0  0  0  0  0
   -0.1229   -1.0594    0.3107 C   0  0  2  0  0  0  0  0  0  0  0  0
   -3.5286    0.1933    0.6489 C   0  0  2  0  0  0  0  0  0  0  0  0
   -2.2973   -0.0119   -0.2007 C   0  0  2  0  0  0  0  0  0  0  0  0
   -2.3388   -1.8472    1.2383 C   0  0  0  0  0  0  0  0  0  0  0  0
   -3.7169   -1.2139    1.2287 C   0  0  0  0  0  0  0  0  0  0  0  0
   -1.4676   -0.7353    0.8603 C   0  0  1  0  0  0  0  0  0  0  0  0
   -4.7097    0.6759   -0.0429 C   0  0  0  0  0  0  0  0  0  0  0  0
   -4.6797    1.9943   -0.7278 C   0  0  0  0  0  0  0  0  0  0  0  0
   -5.7687    0.0352   -0.0966 O   0  0  0  0  0  0  0  0  0  0  0  0
    5.9810    0.5262   -0.1226 O   0  0  0  0  0  0  0  0  0  0  0  0
    2.3512    1.2412    1.9299 H   0  0  0  0  0  0  0  0  0  0  0  0
    2.0616    2.3378    0.5530 H   0  0  0  0  0  0  0  0  0  0  0  0
    4.4218    2.2270    1.4926 H   0  0  0  0  0  0  0  0  0  0  0  0
    4.2090    2.1644   -0.2665 H   0  0  0  0  0  0  0  0  0  0  0  0
    5.2684    0.1224    1.7043 H   0  0  0  0  0  0  0  0  0  0  0  0
    4.5776   -1.8031    0.7894 H   0  0  0  0  0  0  0  0  0  0  0  0
    4.4133   -1.1787   -0.8535 H   0  0  0  0  0  0  0  0  0  0  0  0
    2.7091   -2.8193    1.2202 H   0  0  0  0  0  0  0  0  0  0  0  0
    0.3696   -1.9861    2.2281 H   0  0  0  0  0  0  0  0  0  0  0  0
    0.3362   -3.0578    0.8259 H   0  0  0  0  0  0  0  0  0  0  0  0
   -0.2901    0.0778   -1.8394 H   0  0  0  0  0  0  0  0  0  0  0  0
    0.3071    1.7439   -1.5404 H   0  0  0  0  0  0  0  0  0  0  0  0
   -1.5790    1.9756    0.1838 H   0  0  0  0  0  0  0  0  0  0  0  0
   -2.1261    1.6189   -1.5405 H   0  0  0  0  0  0  0  0  0  0  0  0
    0.2398    0.9664    0.9611 H   0  0  0  0  0  0  0  0  0  0  0  0
   -3.7039   -0.9999   -1.5293 H   0  0  0  0  0  0  0  0  0  0  0  0
   -2.2066   -0.4466   -2.3062 H   0  0  0  0  0  0  0  0  0  0  0  0
   -2.1752   -1.9133   -1.2909 H   0  0  0  0  0  0  0  0  0  0  0  0
    2.3210    1.8072   -1.4810 H   0  0  0  0  0  0  0  0  0  0  0  0
    1.8217    0.2110   -2.1962 H   0  0  0  0  0  0  0  0  0  0  0  0
    3.5219    0.4974   -1.5320 H   0  0  0  0  0  0  0  0  0  0  0  0
   -0.2588   -1.5236   -0.7106 H   0  0  0  0  0  0  0  0  0  0  0  0
   -3.2376    0.9063    1.4523 H   0  0  0  0  0  0  0  0  0  0  0  0
   -2.1039   -2.1775    2.2722 H   0  0  0  0  0  0  0  0  0  0  0  0
   -2.2835   -2.7462    0.5927 H   0  0  0  0  0  0  0  0  0  0  0  0
   -4.1276   -1.1623    2.2539 H   0  0  0  0  0  0  0  0  0  0  0  0
   -4.3433   -1.7889    0.5277 H   0  0  0  0  0  0  0  0  0  0  0  0
   -1.3529   -0.0304    1.6920 H   0  0  0  0  0  0  0  0  0  0  0  0
   -5.6337    2.5521   -0.5781 H   0  0  0  0  0  0  0  0  0  0  0  0
   -4.4833    1.8489   -1.8195 H   0  0  0  0  0  0  0  0  0  0  0  0
   -3.8938    2.6715   -0.3352 H   0  0  0  0  0  0  0  0  0  0  0  0
    5.8196    0.0829   -0.9894 H   0  0  0  0  0  0  0  0  0  0  0  0
  9 16  1  0
 14 19  1  0
  8 10  1  0
 10 12  1  0
 10 14  1  0
  7 14  1  0
  5 12  1  0
  1 12  1  0
  8  9  1  0
  6  7  1  0
  4  5  1  0
  5  6  2  0
  1  2  1  0
  3  4  1  0
  2  3  1  0
  3 23  1  0
 16 11  1  6
 12 13  1  6
 15 20  1  0
 15 16  1  0
 17 18  1  0
 15 18  1  0
 16 19  1  0
 17 19  1  0
 20 21  1  0
 20 22  2  0
  1 24  1  0
  1 25  1  0
  2 26  1  0
  2 27  1  0
  3 28  1  1
  4 29  1  0
  4 30  1  0
  6 31  1  0
  7 32  1  0
  7 33  1  0
  8 34  1  0
  8 35  1  0
  9 36  1  0
  9 37  1  0
 10 38  1  1
 11 39  1  0
 11 40  1  0
 11 41  1  0
 13 42  1  0
 13 43  1  0
 13 44  1  0
 14 45  1  6
 15 46  1  1
 17 47  1  0
 17 48  1  0
 18 49  1  0
 18 50  1  0
 19 51  1  1
 21 52  1  0
 21 53  1  0
 21 54  1  0
 23 55  1  0
M  END

