46508090
     RDKit          3D

  9  8  0  0  0  0  0  0  0  0999 V2000
   -0.8318   -0.3268    0.0295 C   0  0  0  0  0  0  0  0  0  0  0  0
    0.3506    0.5972   -0.0428 C   0  0  0  0  0  0  0  0  0  0  0  0
    1.5959   -0.0428   -0.1330 N   0  0  0  0  0  0  0  0  0  0  0  0
    1.8203   -1.1939    0.0017 O   0  0  0  0  0  0  0  0  0  0  0  0
   -0.8612   -0.8724    0.9915 H   0  0  0  0  0  0  0  0  0  0  0  0
   -1.7475    0.3321   -0.0116 H   0  0  0  0  0  0  0  0  0  0  0  0
   -0.8621   -1.0117   -0.8216 H   0  0  0  0  0  0  0  0  0  0  0  0
    0.3317    1.2225    0.8856 H   0  0  0  0  0  0  0  0  0  0  0  0
    0.2040    1.2957   -0.8993 H   0  0  0  0  0  0  0  0  0  0  0  0
  1  2  1  0
  2  3  1  0
  3  4  2  0
  1  5  1  0
  1  6  1  0
  1  7  1  0
  2  8  1  0
  2  9  1  0
M  END

