46504517
     RDKit          3D

 46 47  0  0  1  0  0  0  0  0999 V2000
   -3.2278   -0.7954   -0.9262 O   0  0  0  0  0  0  0  0  0  0  0  0
    1.2084   -0.6780   -0.7646 O   0  0  0  0  0  0  0  0  0  0  0  0
    0.7890    1.4362   -0.1903 O   0  0  0  0  0  0  0  0  0  0  0  0
    4.4001   -0.4805    1.0390 N   0  0  0  0  0  0  0  0  0  0  0  0
   -1.9139   -0.7768   -0.3678 C   0  0  0  0  0  0  0  0  0  0  0  0
   -1.3930   -2.1585   -0.5026 C   0  0  0  0  0  0  0  0  0  0  0  0
   -2.1291   -0.6554    1.1117 C   0  0  0  0  0  0  0  0  0  0  0  0
   -2.2029   -2.9512    0.5347 C   0  0  0  0  0  0  0  0  0  0  0  0
   -2.9576   -1.9308    1.3552 C   0  0  0  0  0  0  0  0  0  0  0  0
   -1.1155    0.3097   -0.9986 C   0  0  0  0  0  0  0  0  0  0  0  0
   -1.7419    1.6554   -0.7762 C   0  0  0  0  0  0  0  0  0  0  0  0
    0.3172    0.3381   -0.6506 C   0  0  0  0  0  0  0  0  0  0  0  0
   -2.4292    2.2924   -1.7864 C   0  0  0  0  0  0  0  0  0  0  0  0
   -1.6626    2.3211    0.4261 C   0  0  0  0  0  0  0  0  0  0  0  0
    2.5626   -0.6966   -0.4557 C   0  0  0  0  0  0  0  0  0  0  0  0
   -3.0240    3.5264   -1.6563 C   0  0  0  0  0  0  0  0  0  0  0  0
   -2.2509    3.5575    0.5787 C   0  0  0  0  0  0  0  0  0  0  0  0
   -2.9328    4.1737   -0.4464 C   0  0  0  0  0  0  0  0  0  0  0  0
    2.9322   -0.4033    0.9534 C   0  0  0  0  0  0  0  0  0  0  0  0
    4.8601   -1.8424    0.8571 C   0  0  0  0  0  0  0  0  0  0  0  0
    5.0176    0.2892   -0.0474 C   0  0  0  0  0  0  0  0  0  0  0  0
   -3.5130    0.1629   -0.8555 H   0  0  0  0  0  0  0  0  0  0  0  0
   -0.3290   -2.3114   -0.3644 H   0  0  0  0  0  0  0  0  0  0  0  0
   -1.7189   -2.5530   -1.5023 H   0  0  0  0  0  0  0  0  0  0  0  0
   -1.2344   -0.7515    1.7247 H   0  0  0  0  0  0  0  0  0  0  0  0
   -2.8135    0.1745    1.3865 H   0  0  0  0  0  0  0  0  0  0  0  0
   -1.4573   -3.4102    1.2358 H   0  0  0  0  0  0  0  0  0  0  0  0
   -2.8595   -3.6944    0.0703 H   0  0  0  0  0  0  0  0  0  0  0  0
   -2.9844   -2.2171    2.4097 H   0  0  0  0  0  0  0  0  0  0  0  0
   -3.9816   -1.7367    0.9184 H   0  0  0  0  0  0  0  0  0  0  0  0
   -1.2184    0.1339   -2.1124 H   0  0  0  0  0  0  0  0  0  0  0  0
   -2.5191    1.7988   -2.7624 H   0  0  0  0  0  0  0  0  0  0  0  0
   -1.1257    1.8504    1.2379 H   0  0  0  0  0  0  0  0  0  0  0  0
    2.9836   -1.7024   -0.7226 H   0  0  0  0  0  0  0  0  0  0  0  0
    3.0610    0.0556   -1.1290 H   0  0  0  0  0  0  0  0  0  0  0  0
   -3.5651    4.0144   -2.4650 H   0  0  0  0  0  0  0  0  0  0  0  0
   -2.1881    4.0879    1.5314 H   0  0  0  0  0  0  0  0  0  0  0  0
   -3.3985    5.1570   -0.3214 H   0  0  0  0  0  0  0  0  0  0  0  0
    2.5267   -1.1161    1.6700 H   0  0  0  0  0  0  0  0  0  0  0  0
    2.7088    0.6730    1.2179 H   0  0  0  0  0  0  0  0  0  0  0  0
    5.8516   -1.9771    1.3288 H   0  0  0  0  0  0  0  0  0  0  0  0
    4.9450   -2.0970   -0.2228 H   0  0  0  0  0  0  0  0  0  0  0  0
    4.0900   -2.5260    1.2672 H   0  0  0  0  0  0  0  0  0  0  0  0
    4.4790    1.2392   -0.2083 H   0  0  0  0  0  0  0  0  0  0  0  0
    6.0338    0.5661    0.3023 H   0  0  0  0  0  0  0  0  0  0  0  0
    5.1208   -0.3517   -0.9215 H   0  0  0  0  0  0  0  0  0  0  0  0
  1  5  1  0
  2 12  1  0
  2 15  1  0
  3 12  2  0
  4 19  1  0
  4 20  1  0
  4 21  1  0
  5  6  1  0
  5  7  1  0
  5 10  1  0
  6  8  1  0
  7  9  1  0
  8  9  1  0
 10 11  1  0
 10 12  1  0
 11 13  2  0
 11 14  1  0
 13 16  1  0
 14 17  2  0
 15 19  1  0
 16 18  2  0
 17 18  1  0
  1 22  1  0
  6 23  1  0
  6 24  1  0
  7 25  1  0
  7 26  1  0
  8 27  1  0
  8 28  1  0
  9 29  1  0
  9 30  1  0
 10 31  1  0
 13 32  1  0
 14 33  1  0
 15 34  1  0
 15 35  1  0
 16 36  1  0
 17 37  1  0
 18 38  1  0
 19 39  1  0
 19 40  1  0
 20 41  1  0
 20 42  1  0
 20 43  1  0
 21 44  1  0
 21 45  1  0
 21 46  1  0
M  END

