46505995
     RDKit          3D

  9  8  0  0  0  0  0  0  0  0999 V2000
    1.3109    0.5664    0.4067 O   0  0  0  0  0  0  0  0  0  0  0  0
    0.4433   -0.4939    0.0727 C   0  0  0  0  0  0  0  0  0  0  0  0
   -0.9369    0.1605   -0.0490 C   0  0  0  0  0  0  0  0  0  0  0  0
   -1.8959   -0.7790   -0.3775 F   0  0  0  0  0  0  0  0  0  0  0  0
   -1.1631    0.7263    1.1942 F   0  0  0  0  0  0  0  0  0  0  0  0
   -0.8917    1.1848   -0.9573 F   0  0  0  0  0  0  0  0  0  0  0  0
    1.9039    0.7830   -0.3325 H   0  0  0  0  0  0  0  0  0  0  0  0
    0.4592   -1.1950    0.9064 H   0  0  0  0  0  0  0  0  0  0  0  0
    0.7703   -0.9530   -0.8637 H   0  0  0  0  0  0  0  0  0  0  0  0
  1  2  1  0
  2  3  1  0
  3  4  1  0
  3  5  1  0
  3  6  1  0
  1  7  1  0
  2  8  1  0
  2  9  1  0
M  END

