46508846
     RDKit          3D

 11 10  0  0  0  0  0  0  0  0999 V2000
   -1.5847   -0.1756   -0.1364 N   0  0  0  0  0  0  0  0  0  0  0  0
   -0.2785   -0.1767    0.4738 C   0  0  0  0  0  0  0  0  0  0  0  0
    0.7444    0.5853   -0.3416 C   0  0  0  0  0  0  0  0  0  0  0  0
    1.9573    0.4937    0.3786 O   0  0  0  0  0  0  0  0  0  0  0  0
   -2.2734    0.0286    0.6286 H   0  0  0  0  0  0  0  0  0  0  0  0
   -1.8417   -1.1413   -0.4955 H   0  0  0  0  0  0  0  0  0  0  0  0
   -0.2840    0.3028    1.4858 H   0  0  0  0  0  0  0  0  0  0  0  0
    0.0691   -1.2126    0.6229 H   0  0  0  0  0  0  0  0  0  0  0  0
    0.9372    0.1415   -1.3246 H   0  0  0  0  0  0  0  0  0  0  0  0
    0.4533    1.6457   -0.4268 H   0  0  0  0  0  0  0  0  0  0  0  0
    2.1009   -0.4913    0.5483 H   0  0  0  0  0  0  0  0  0  0  0  0
  1  2  1  0
  2  3  1  0
  3  4  1  0
  1  5  1  0
  1  6  1  0
  2  7  1  0
  2  8  1  0
  3  9  1  0
  3 10  1  0
  4 11  1  0
M  END

