46508598
     RDKit          3D

 90 93  0  0  1  0  0  0  0  0999 V2000
    8.4125   -2.6143   -0.3002 C   0  0  0  0  0  0  0  0  0  0  0  0
    7.6371   -1.3721    0.0504 C   0  0  0  0  0  0  0  0  0  0  0  0
    6.4508   -1.2449   -0.3602 O   0  0  0  0  0  0  0  0  0  0  0  0
    8.2054   -0.3452    0.8285 N   0  0  0  0  0  0  0  0  0  0  0  0
    7.4436    0.8073    1.1364 C   0  0  0  0  0  0  0  0  0  0  0  0
    7.9068    1.7698    1.8397 N   0  0  0  0  0  0  0  0  0  0  0  0
    6.0983    0.9277    0.6484 N   0  0  0  0  0  0  0  0  0  0  0  0
    4.9949    0.7129    1.5572 C   0  0  0  0  0  0  0  0  0  0  0  0
    3.7072    0.9041    0.7702 C   0  0  0  0  0  0  0  0  0  0  0  0
    2.4942    0.7041    1.6192 C   0  0  0  0  0  0  0  0  0  0  0  0
    1.2577    0.9240    0.7356 C   0  0  2  0  0  0  0  0  0  0  0  0
    0.0553    0.7761    1.5098 N   0  0  0  0  0  0  0  0  0  0  0  0
   -1.0952    1.5804    1.5266 C   0  0  0  0  0  0  0  0  0  0  0  0
   -1.5837    1.9795    2.6572 O   0  0  0  0  0  0  0  0  0  0  0  0
   -1.8727    2.0619    0.3560 C   0  0  2  0  0  0  0  0  0  0  0  0
   -1.4348    3.4892    0.1132 C   0  0  0  0  0  0  0  0  0  0  0  0
   -2.1149    4.1494   -1.0318 C   0  0  0  0  0  0  0  0  0  0  0  0
   -1.8852    3.4447   -2.3528 C   0  0  0  0  0  0  0  0  0  0  0  0
   -2.5645    4.1171   -3.4695 C   0  0  0  0  0  0  0  0  0  0  0  0
   -2.4616    3.6185   -4.7418 O   0  0  0  0  0  0  0  0  0  0  0  0
   -3.2386    5.1592   -3.2167 O   0  0  0  0  0  0  0  0  0  0  0  0
   -3.3074    2.0247    0.6853 N   0  0  0  0  0  0  0  0  0  0  0  0
   -4.3469    1.4890   -0.0576 C   0  0  0  0  0  0  0  0  0  0  0  0
   -5.2836    2.3309   -0.3691 O   0  0  0  0  0  0  0  0  0  0  0  0
   -4.6023    0.1626   -0.5615 C   0  0  2  0  0  0  0  0  0  0  0  0
   -6.0553   -0.2303   -0.2153 C   0  0  0  0  0  0  0  0  0  0  0  0
   -6.1479   -0.1562    1.2726 C   0  0  0  0  0  0  0  0  0  0  0  0
   -5.9260   -1.1468    2.1960 C   0  0  0  0  0  0  0  0  0  0  0  0
   -6.1097   -0.6655    3.4487 N   0  0  0  0  0  0  0  0  0  0  0  0
   -6.4465    0.6245    3.3170 C   0  0  0  0  0  0  0  0  0  0  0  0
   -6.4731    0.9443    2.0087 N   0  0  0  0  0  0  0  0  0  0  0  0
   -3.8133   -0.9545   -0.2163 N   0  0  0  0  0  0  0  0  0  0  0  0
   -3.8929   -2.2195   -1.0148 C   0  0  2  0  0  0  0  0  0  0  0  0
   -4.7476   -3.1073   -0.4057 O   0  0  0  0  0  0  0  0  0  0  0  0
   -2.4801   -2.7788   -0.9932 C   0  0  0  0  0  0  0  0  0  0  0  0
   -1.7212   -1.8012   -0.0732 C   0  0  2  0  0  0  0  0  0  0  0  0
   -0.8290   -2.6166    0.6940 N   0  0  0  0  0  0  0  0  0  0  0  0
    0.5674   -2.5120    0.8332 C   0  0  0  0  0  0  0  0  0  0  0  0
    1.0144   -2.5625    2.0361 O   0  0  0  0  0  0  0  0  0  0  0  0
    1.5744   -2.3569   -0.2138 C   0  0  1  0  0  0  0  0  0  0  0  0
    1.3127   -3.3339   -1.3608 C   0  0  0  0  0  0  0  0  0  0  0  0
    1.9819   -2.6889   -2.5083 C   0  0  0  0  0  0  0  0  0  0  0  0
    2.5932   -1.4292   -2.0279 C   0  0  0  0  0  0  0  0  0  0  0  0
    1.7385   -1.1010   -0.8396 N   0  0  0  0  0  0  0  0  0  0  0  0
    1.2731    0.1753   -0.5175 C   0  0  0  0  0  0  0  0  0  0  0  0
    0.7579    0.8125   -1.5297 O   0  0  0  0  0  0  0  0  0  0  0  0
   -2.8713   -1.2433    0.7564 C   0  0  0  0  0  0  0  0  0  0  0  0
   -2.7049   -1.1857    2.0062 O   0  0  0  0  0  0  0  0  0  0  0  0
    9.3915   -2.5407    0.1907 H   0  0  0  0  0  0  0  0  0  0  0  0
    7.9034   -3.5267    0.0541 H   0  0  0  0  0  0  0  0  0  0  0  0
    8.4873   -2.6006   -1.4151 H   0  0  0  0  0  0  0  0  0  0  0  0
    9.1943   -0.4672    1.1620 H   0  0  0  0  0  0  0  0  0  0  0  0
    7.3738    2.6112    2.0740 H   0  0  0  0  0  0  0  0  0  0  0  0
    5.9199    1.1684   -0.3543 H   0  0  0  0  0  0  0  0  0  0  0  0
    5.0342   -0.3490    1.9234 H   0  0  0  0  0  0  0  0  0  0  0  0
    5.0103    1.4445    2.3864 H   0  0  0  0  0  0  0  0  0  0  0  0
    3.6976    1.9447    0.3839 H   0  0  0  0  0  0  0  0  0  0  0  0
    3.7287    0.2496   -0.1068 H   0  0  0  0  0  0  0  0  0  0  0  0
    2.4692    1.5296    2.3769 H   0  0  0  0  0  0  0  0  0  0  0  0
    2.4651   -0.2839    2.0932 H   0  0  0  0  0  0  0  0  0  0  0  0
    1.3569    2.0416    0.5129 H   0  0  0  0  0  0  0  0  0  0  0  0
    0.0205   -0.0486    2.1791 H   0  0  0  0  0  0  0  0  0  0  0  0
   -1.6853    1.4405   -0.5302 H   0  0  0  0  0  0  0  0  0  0  0  0
   -1.6089    4.1287    1.0109 H   0  0  0  0  0  0  0  0  0  0  0  0
   -0.3483    3.5345   -0.0743 H   0  0  0  0  0  0  0  0  0  0  0  0
   -1.6333    5.1642   -1.1426 H   0  0  0  0  0  0  0  0  0  0  0  0
   -3.1874    4.3702   -0.8451 H   0  0  0  0  0  0  0  0  0  0  0  0
   -2.2948    2.4021   -2.3053 H   0  0  0  0  0  0  0  0  0  0  0  0
   -0.7825    3.3815   -2.4871 H   0  0  0  0  0  0  0  0  0  0  0  0
   -1.8209    3.9859   -5.4471 H   0  0  0  0  0  0  0  0  0  0  0  0
   -3.5194    2.4857    1.6236 H   0  0  0  0  0  0  0  0  0  0  0  0
   -4.6632    0.2847   -1.6996 H   0  0  0  0  0  0  0  0  0  0  0  0
   -6.7576    0.4710   -0.6773 H   0  0  0  0  0  0  0  0  0  0  0  0
   -6.2332   -1.2991   -0.4960 H   0  0  0  0  0  0  0  0  0  0  0  0
   -5.6439   -2.1781    1.9848 H   0  0  0  0  0  0  0  0  0  0  0  0
   -6.0142   -1.1740    4.3453 H   0  0  0  0  0  0  0  0  0  0  0  0
   -6.6568    1.2763    4.1519 H   0  0  0  0  0  0  0  0  0  0  0  0
   -4.1413   -2.0668   -2.0543 H   0  0  0  0  0  0  0  0  0  0  0  0
   -4.2127   -3.6677    0.2092 H   0  0  0  0  0  0  0  0  0  0  0  0
   -2.4727   -3.7966   -0.5981 H   0  0  0  0  0  0  0  0  0  0  0  0
   -2.0127   -2.7970   -1.9855 H   0  0  0  0  0  0  0  0  0  0  0  0
   -1.2930   -1.0583   -0.7238 H   0  0  0  0  0  0  0  0  0  0  0  0
   -1.3407   -3.4025    1.2179 H   0  0  0  0  0  0  0  0  0  0  0  0
    2.6023   -2.6565    0.1505 H   0  0  0  0  0  0  0  0  0  0  0  0
    1.7682   -4.3043   -1.0564 H   0  0  0  0  0  0  0  0  0  0  0  0
    0.2316   -3.5038   -1.5058 H   0  0  0  0  0  0  0  0  0  0  0  0
    2.7693   -3.3982   -2.8972 H   0  0  0  0  0  0  0  0  0  0  0  0
    1.2968   -2.5506   -3.3774 H   0  0  0  0  0  0  0  0  0  0  0  0
    3.6287   -1.5794   -1.6590 H   0  0  0  0  0  0  0  0  0  0  0  0
    2.5062   -0.6883   -2.8180 H   0  0  0  0  0  0  0  0  0  0  0  0
  1  2  1  0
  2  3  2  0
  2  4  1  0
  4  5  1  0
  5  6  2  3
  5  7  1  0
  7  8  1  0
  8  9  1  0
  9 10  1  0
 11 10  1  0
 11 12  1  0
 11 45  1  0
 12 13  1  0
 13 14  2  0
 13 15  1  0
 15 16  1  0
 15 22  1  0
 16 17  1  0
 17 18  1  0
 18 19  1  0
 19 20  1  0
 19 21  2  0
 22 23  1  0
 23 24  2  0
 23 25  1  0
 25 26  1  0
 25 32  1  0
 26 27  1  0
 27 28  2  0
 27 31  1  0
 28 29  1  0
 29 30  1  0
 30 31  2  0
 32 33  1  0
 32 47  1  0
 33 34  1  0
 33 35  1  0
 36 35  1  0
 36 37  1  0
 36 47  1  0
 37 38  1  0
 38 39  2  0
 38 40  1  0
 40 41  1  0
 40 44  1  0
 41 42  1  0
 42 43  1  0
 43 44  1  0
 44 45  1  0
 45 46  2  0
 47 48  2  0
  1 49  1  0
  1 50  1  0
  1 51  1  0
  4 52  1  0
  6 53  1  0
  7 54  1  0
  8 55  1  0
  8 56  1  0
  9 57  1  0
  9 58  1  0
 10 59  1  0
 10 60  1  0
 11 61  1  6
 12 62  1  0
 15 63  1  6
 16 64  1  0
 16 65  1  0
 17 66  1  0
 17 67  1  0
 18 68  1  0
 18 69  1  0
 20 70  1  0
 22 71  1  0
 25 72  1  6
 26 73  1  0
 26 74  1  0
 28 75  1  0
 29 76  1  0
 30 77  1  0
 33 78  1  6
 34 79  1  0
 35 80  1  0
 35 81  1  0
 36 82  1  6
 37 83  1  0
 40 84  1  1
 41 85  1  0
 41 86  1  0
 42 87  1  0
 42 88  1  0
 43 89  1  0
 43 90  1  0
M  END

