46508325
     RDKit          3D

 52 55  0  0  1  0  0  0  0  0999 V2000
   -0.9847   -0.4297    0.3547 C   0  0  0  0  0  0  0  0  0  0  0  0
   -1.9935   -1.3749   -0.1713 C   0  0  0  0  0  0  0  0  0  0  0  0
   -3.2405   -0.8623   -0.7633 C   0  0  0  0  0  0  0  0  0  0  0  0
    0.1856   -1.2517    0.9074 C   0  0  0  0  0  0  0  0  0  0  0  0
   -4.2379   -0.3763    0.2276 C   0  0  0  0  0  0  0  0  0  0  0  0
    2.0019    0.3957    0.5067 N   0  0  0  0  0  0  0  0  0  0  0  0
   -4.7897   -1.4026    0.8988 C   0  0  0  0  0  0  0  0  0  0  0  0
   -2.5279   -2.3565    0.8573 C   0  0  0  0  0  0  0  0  0  0  0  0
   -3.9876   -2.5828    0.4609 C   0  0  0  0  0  0  0  0  0  0  0  0
   -3.9134   -2.2513   -1.0205 C   0  0  0  0  0  0  0  0  0  0  0  0
   -0.6058    0.6897   -0.4853 C   0  0  0  0  0  0  0  0  0  0  0  0
    1.2915   -0.4273    1.4557 C   0  0  0  0  0  0  0  0  0  0  0  0
   -1.5617    0.1208    1.5385 O   0  0  0  0  0  0  0  0  0  0  0  0
    2.8297   -0.3810   -0.3953 C   0  0  0  0  0  0  0  0  0  0  0  0
    2.7165    1.4901    1.0868 C   0  0  0  0  0  0  0  0  0  0  0  0
   -0.7506    2.0127   -0.0307 C   0  0  0  0  0  0  0  0  0  0  0  0
   -0.0883    0.5845   -1.7610 C   0  0  0  0  0  0  0  0  0  0  0  0
    4.1775    1.1433    1.3425 C   0  0  0  0  0  0  0  0  0  0  0  0
    3.8387    0.5690   -1.0025 C   0  0  0  0  0  0  0  0  0  0  0  0
    0.2668    1.6440   -2.5542 C   0  0  0  0  0  0  0  0  0  0  0  0
   -0.4040    3.1008   -0.7995 C   0  0  0  0  0  0  0  0  0  0  0  0
    0.1049    2.9478   -2.0615 C   0  0  0  0  0  0  0  0  0  0  0  0
    4.8896    0.8291    0.0535 C   0  0  0  0  0  0  0  0  0  0  0  0
   -1.4718   -1.9639   -0.9840 H   0  0  0  0  0  0  0  0  0  0  0  0
   -3.1899   -0.2693   -1.6740 H   0  0  0  0  0  0  0  0  0  0  0  0
    0.5250   -1.9621    0.1036 H   0  0  0  0  0  0  0  0  0  0  0  0
   -0.1629   -1.9211    1.7273 H   0  0  0  0  0  0  0  0  0  0  0  0
   -4.4876    0.6652    0.3816 H   0  0  0  0  0  0  0  0  0  0  0  0
   -5.6255   -1.3120    1.5725 H   0  0  0  0  0  0  0  0  0  0  0  0
   -2.4500   -1.9657    1.8924 H   0  0  0  0  0  0  0  0  0  0  0  0
   -2.0190   -3.3177    0.7579 H   0  0  0  0  0  0  0  0  0  0  0  0
   -4.3846   -3.5439    0.6847 H   0  0  0  0  0  0  0  0  0  0  0  0
   -4.8940   -2.1267   -1.4801 H   0  0  0  0  0  0  0  0  0  0  0  0
   -3.2051   -2.9142   -1.5272 H   0  0  0  0  0  0  0  0  0  0  0  0
    0.9188    0.2790    2.2572 H   0  0  0  0  0  0  0  0  0  0  0  0
    2.0666   -1.0102    1.9848 H   0  0  0  0  0  0  0  0  0  0  0  0
   -2.3397    0.6622    1.3788 H   0  0  0  0  0  0  0  0  0  0  0  0
    2.2766   -0.8467   -1.2098 H   0  0  0  0  0  0  0  0  0  0  0  0
    3.4185   -1.1062    0.2184 H   0  0  0  0  0  0  0  0  0  0  0  0
    2.6211    2.3670    0.4133 H   0  0  0  0  0  0  0  0  0  0  0  0
    2.2945    1.7759    2.0956 H   0  0  0  0  0  0  0  0  0  0  0  0
   -1.1440    2.2196    0.9622 H   0  0  0  0  0  0  0  0  0  0  0  0
    0.0594   -0.3995   -2.1801 H   0  0  0  0  0  0  0  0  0  0  0  0
    4.6695    1.9800    1.8389 H   0  0  0  0  0  0  0  0  0  0  0  0
    4.1710    0.2358    1.9966 H   0  0  0  0  0  0  0  0  0  0  0  0
    4.2760    0.1679   -1.9331 H   0  0  0  0  0  0  0  0  0  0  0  0
    3.2958    1.4923   -1.2593 H   0  0  0  0  0  0  0  0  0  0  0  0
    0.6793    1.5269   -3.5546 H   0  0  0  0  0  0  0  0  0  0  0  0
   -0.5352    4.0966   -0.4081 H   0  0  0  0  0  0  0  0  0  0  0  0
    0.3713    3.7939   -2.6496 H   0  0  0  0  0  0  0  0  0  0  0  0
    5.5373    1.6649   -0.2077 H   0  0  0  0  0  0  0  0  0  0  0  0
    5.5117   -0.0991    0.1563 H   0  0  0  0  0  0  0  0  0  0  0  0
  1  2  1  0
  2  3  1  0
  1  4  1  0
  3  5  1  0
  6 12  1  0
  7  9  1  0
  2  8  1  0
  8  9  1  0
  3 10  1  0
  1 11  1  0
  4 12  1  0
  1 13  1  0
  6 14  1  0
  6 15  1  0
 11 16  2  0
 11 17  1  0
 15 18  1  0
 14 19  1  0
 17 20  2  0
 16 21  1  0
 20 22  1  0
 18 23  1  0
  9 10  1  0
 21 22  2  0
  5  7  2  0
 19 23  1  0
  2 24  1  0
  3 25  1  0
  4 26  1  0
  4 27  1  0
  5 28  1  0
  7 29  1  0
  8 30  1  0
  8 31  1  0
  9 32  1  0
 10 33  1  0
 10 34  1  0
 12 35  1  0
 12 36  1  0
 13 37  1  0
 14 38  1  0
 14 39  1  0
 15 40  1  0
 15 41  1  0
 16 42  1  0
 17 43  1  0
 18 44  1  0
 18 45  1  0
 19 46  1  0
 19 47  1  0
 20 48  1  0
 21 49  1  0
 22 50  1  0
 23 51  1  0
 23 52  1  0
M  END

