46504792
     RDKit          3D

 16 15  0  0  0  0  0  0  0  0999 V2000
    2.6849    0.0830    0.0574 C   0  0  0  0  0  0  0  0  0  0  0  0
    1.2471    0.0980    0.4778 C   0  0  0  0  0  0  0  0  0  0  0  0
    0.9485    0.0570    1.6607 O   0  0  0  0  0  0  0  0  0  0  0  0
    0.1934    0.1617   -0.5786 C   0  0  0  0  0  0  0  0  0  0  0  0
   -1.1542    0.1077    0.1179 C   0  0  0  0  0  0  0  0  0  0  0  0
   -2.2795    0.1735   -0.8097 C   0  0  0  0  0  0  0  0  0  0  0  0
   -3.2551   -0.8146   -0.8524 O   0  0  0  0  0  0  0  0  0  0  0  0
   -2.3691    1.1623   -1.6023 O   0  0  0  0  0  0  0  0  0  0  0  0
    3.3216   -0.0395    0.9290 H   0  0  0  0  0  0  0  0  0  0  0  0
    2.9542    0.9889   -0.4938 H   0  0  0  0  0  0  0  0  0  0  0  0
    2.7782   -0.7743   -0.6517 H   0  0  0  0  0  0  0  0  0  0  0  0
    0.2802   -0.7696   -1.2084 H   0  0  0  0  0  0  0  0  0  0  0  0
    0.2888    1.0689   -1.2261 H   0  0  0  0  0  0  0  0  0  0  0  0
   -1.1577    0.9206    0.8756 H   0  0  0  0  0  0  0  0  0  0  0  0
   -1.1651   -0.8580    0.6740 H   0  0  0  0  0  0  0  0  0  0  0  0
   -3.3162   -1.5657   -0.1749 H   0  0  0  0  0  0  0  0  0  0  0  0
  1  2  1  0
  2  3  2  0
  2  4  1  0
  4  5  1  0
  5  6  1  0
  6  7  1  0
  6  8  2  0
  1  9  1  0
  1 10  1  0
  1 11  1  0
  4 12  1  0
  4 13  1  0
  5 14  1  0
  5 15  1  0
  7 16  1  0
M  END

