46506969
     RDKit          3D

  9  8  0  0  0  0  0  0  0  0999 V2000
    1.3195    0.2906    0.5714 O   0  0  0  0  0  0  0  0  0  0  0  0
    0.3656   -0.5079   -0.0913 C   0  0  0  0  0  0  0  0  0  0  0  0
   -0.9424    0.2700    0.0157 C   0  0  0  0  0  0  0  0  0  0  0  0
    1.9678    0.6862   -0.0491 H   0  0  0  0  0  0  0  0  0  0  0  0
    0.6502   -0.7066   -1.1360 H   0  0  0  0  0  0  0  0  0  0  0  0
    0.2882   -1.4578    0.4834 H   0  0  0  0  0  0  0  0  0  0  0  0
   -0.7066    1.3180   -0.3043 H   0  0  0  0  0  0  0  0  0  0  0  0
   -1.2003    0.2679    1.1069 H   0  0  0  0  0  0  0  0  0  0  0  0
   -1.7420   -0.1605   -0.5967 H   0  0  0  0  0  0  0  0  0  0  0  0
  1  2  1  0
  2  3  1  0
  1  4  1  0
  2  5  1  0
  2  6  1  0
  3  7  1  0
  3  8  1  0
  3  9  1  0
M  END

