46507833
     RDKit          3D

 34 33  0  0  0  0  0  0  0  0999 V2000
   -4.3336   -1.3985    1.2140 C   0  0  0  0  0  0  0  0  0  0  0  0
   -4.6216   -0.0971    1.4275 O   0  0  0  0  0  0  0  0  0  0  0  0
   -4.4333    0.8290    0.4788 C   0  0  0  0  0  0  0  0  0  0  0  0
   -3.0015    0.9632    0.0179 C   0  0  0  0  0  0  0  0  0  0  0  0
   -2.5759   -0.2058   -0.5078 O   0  0  0  0  0  0  0  0  0  0  0  0
   -1.3021   -0.2108   -1.0252 C   0  0  0  0  0  0  0  0  0  0  0  0
   -0.2833    0.0929    0.0086 C   0  0  0  0  0  0  0  0  0  0  0  0
    0.9889    0.0841   -0.4970 O   0  0  0  0  0  0  0  0  0  0  0  0
    1.3611   -1.1314   -1.0054 C   0  0  0  0  0  0  0  0  0  0  0  0
    2.7857   -1.0903   -1.4971 C   0  0  0  0  0  0  0  0  0  0  0  0
    3.7517   -0.7998   -0.6072 O   0  0  0  0  0  0  0  0  0  0  0  0
    3.7261    0.3929    0.0501 C   0  0  0  0  0  0  0  0  0  0  0  0
    4.9419    0.5224    0.9814 C   0  0  0  0  0  0  0  0  0  0  0  0
    4.9126    1.7404    1.6504 O   0  0  0  0  0  0  0  0  0  0  0  0
   -4.6435   -1.9377    2.1815 H   0  0  0  0  0  0  0  0  0  0  0  0
   -3.2572   -1.6236    1.0382 H   0  0  0  0  0  0  0  0  0  0  0  0
   -4.9798   -1.8347    0.4282 H   0  0  0  0  0  0  0  0  0  0  0  0
   -4.6815    1.8365    0.9342 H   0  0  0  0  0  0  0  0  0  0  0  0
   -5.0986    0.6494   -0.4015 H   0  0  0  0  0  0  0  0  0  0  0  0
   -2.3512    1.2704    0.8678 H   0  0  0  0  0  0  0  0  0  0  0  0
   -2.9120    1.8193   -0.7125 H   0  0  0  0  0  0  0  0  0  0  0  0
   -1.1102   -1.1657   -1.5744 H   0  0  0  0  0  0  0  0  0  0  0  0
   -1.2984    0.5928   -1.8312 H   0  0  0  0  0  0  0  0  0  0  0  0
   -0.5233    1.0946    0.4603 H   0  0  0  0  0  0  0  0  0  0  0  0
   -0.3983   -0.6400    0.8420 H   0  0  0  0  0  0  0  0  0  0  0  0
    1.1846   -1.9002   -0.2440 H   0  0  0  0  0  0  0  0  0  0  0  0
    0.7565   -1.4568   -1.9042 H   0  0  0  0  0  0  0  0  0  0  0  0
    2.8263   -0.3288   -2.3243 H   0  0  0  0  0  0  0  0  0  0  0  0
    3.0635   -2.0656   -1.9883 H   0  0  0  0  0  0  0  0  0  0  0  0
    2.8500    0.3764    0.7670 H   0  0  0  0  0  0  0  0  0  0  0  0
    3.7110    1.2597   -0.6145 H   0  0  0  0  0  0  0  0  0  0  0  0
    5.0226   -0.3452    1.6571 H   0  0  0  0  0  0  0  0  0  0  0  0
    5.8488    0.5472    0.3228 H   0  0  0  0  0  0  0  0  0  0  0  0
    4.0738    2.1991    1.4066 H   0  0  0  0  0  0  0  0  0  0  0  0
  1  2  1  0
  2  3  1  0
  3  4  1  0
  4  5  1  0
  5  6  1  0
  6  7  1  0
  7  8  1  0
  8  9  1  0
  9 10  1  0
 10 11  1  0
 11 12  1  0
 12 13  1  0
 13 14  1  0
  1 15  1  0
  1 16  1  0
  1 17  1  0
  3 18  1  0
  3 19  1  0
  4 20  1  0
  4 21  1  0
  6 22  1  0
  6 23  1  0
  7 24  1  0
  7 25  1  0
  9 26  1  0
  9 27  1  0
 10 28  1  0
 10 29  1  0
 12 30  1  0
 12 31  1  0
 13 32  1  0
 13 33  1  0
 14 34  1  0
M  END

