46505604
     RDKit          3D

 23 22  0  0  0  0  0  0  0  0999 V2000
   -2.3418   -1.0295   -0.0607 C   0  0  0  0  0  0  0  0  0  0  0  0
   -1.0536   -1.2753    0.7104 C   0  0  0  0  0  0  0  0  0  0  0  0
    0.0401   -0.4668    0.0402 C   0  0  0  0  0  0  0  0  0  0  0  0
    1.3518   -0.6736    0.7686 C   0  0  0  0  0  0  0  0  0  0  0  0
    2.4749    0.1047    0.1477 C   0  0  0  0  0  0  0  0  0  0  0  0
    2.2347    1.5868    0.1392 C   0  0  0  0  0  0  0  0  0  0  0  0
   -2.3621    1.2069   -1.1110 O   0  0  0  0  0  0  0  0  0  0  0  0
   -2.6324    0.4238   -0.0002 C   0  0  0  0  0  0  0  0  0  0  0  0
   -3.1190    0.9709    1.0331 O   0  0  0  0  0  0  0  0  0  0  0  0
   -3.1484   -1.6219    0.4156 H   0  0  0  0  0  0  0  0  0  0  0  0
   -2.2256   -1.3461   -1.1030 H   0  0  0  0  0  0  0  0  0  0  0  0
   -0.7552   -2.3378    0.6484 H   0  0  0  0  0  0  0  0  0  0  0  0
   -1.2112   -0.9764    1.7669 H   0  0  0  0  0  0  0  0  0  0  0  0
    0.0892   -0.8078   -1.0153 H   0  0  0  0  0  0  0  0  0  0  0  0
   -0.2094    0.6095    0.0039 H   0  0  0  0  0  0  0  0  0  0  0  0
    1.2063   -0.4659    1.8271 H   0  0  0  0  0  0  0  0  0  0  0  0
    1.6022   -1.7505    0.6693 H   0  0  0  0  0  0  0  0  0  0  0  0
    3.4014   -0.0756    0.7298 H   0  0  0  0  0  0  0  0  0  0  0  0
    2.6628   -0.2683   -0.8782 H   0  0  0  0  0  0  0  0  0  0  0  0
    1.3150    1.8956    0.6604 H   0  0  0  0  0  0  0  0  0  0  0  0
    2.1438    1.9445   -0.9238 H   0  0  0  0  0  0  0  0  0  0  0  0
    3.0882    2.1524    0.5868 H   0  0  0  0  0  0  0  0  0  0  0  0
   -2.5518    2.2003   -1.1236 H   0  0  0  0  0  0  0  0  0  0  0  0
  1  8  1  0
  1  2  1  0
  2  3  1  0
  3  4  1  0
  4  5  1  0
  5  6  1  0
  7  8  1  0
  8  9  2  0
  1 10  1  0
  1 11  1  0
  2 12  1  0
  2 13  1  0
  3 14  1  0
  3 15  1  0
  4 16  1  0
  4 17  1  0
  5 18  1  0
  5 19  1  0
  6 20  1  0
  6 21  1  0
  6 22  1  0
  7 23  1  0
M  END

