46507720
     RDKit          3D

 16 16  0  0  0  0  0  0  0  0999 V2000
    2.5747    0.0332    1.1322 O   0  0  0  0  0  0  0  0  0  0  0  0
    1.9981    0.0250   -0.1474 C   0  0  0  0  0  0  0  0  0  0  0  0
    0.4898    0.0610   -0.0868 C   0  0  0  0  0  0  0  0  0  0  0  0
   -0.1201    1.1287    0.4836 C   0  0  0  0  0  0  0  0  0  0  0  0
   -1.5893    1.1206    0.4812 C   0  0  0  0  0  0  0  0  0  0  0  0
   -2.2128    0.0880   -0.0569 C   0  0  0  0  0  0  0  0  0  0  0  0
   -1.6050   -0.9932   -0.5958 C   0  0  0  0  0  0  0  0  0  0  0  0
   -2.3290   -1.9855   -1.2140 F   0  0  0  0  0  0  0  0  0  0  0  0
   -0.2582   -0.9557   -0.5942 C   0  0  0  0  0  0  0  0  0  0  0  0
    0.5198   -2.0311   -1.0787 F   0  0  0  0  0  0  0  0  0  0  0  0
    2.6985   -0.9425    1.3477 H   0  0  0  0  0  0  0  0  0  0  0  0
    2.4552   -0.7048   -0.8550 H   0  0  0  0  0  0  0  0  0  0  0  0
    2.2711    1.1038   -0.5919 H   0  0  0  0  0  0  0  0  0  0  0  0
    0.4173    1.9583    0.8689 H   0  0  0  0  0  0  0  0  0  0  0  0
   -1.9689    1.9927    1.0064 H   0  0  0  0  0  0  0  0  0  0  0  0
   -3.3412    0.1015   -0.0993 H   0  0  0  0  0  0  0  0  0  0  0  0
  1  2  1  0
  2  3  1  0
  3  4  2  0
  4  5  1  0
  5  6  2  0
  6  7  1  0
  7  8  1  0
  7  9  2  0
  3  9  1  0
  9 10  1  0
  1 11  1  0
  2 12  1  0
  2 13  1  0
  4 14  1  0
  5 15  1  0
  6 16  1  0
M  END

