46506534
     RDKit          3D

 18 19  0  0  0  0  0  0  0  0999 V2000
   -0.3708   -1.8120    0.4848 N   0  0  0  0  0  0  0  0  0  0  0  0
    0.9079   -1.4288    0.4113 C   0  0  0  0  0  0  0  0  0  0  0  0
   -1.1050    0.3050   -0.1017 C   0  0  0  0  0  0  0  0  0  0  0  0
    0.3081    0.7043   -0.1765 C   0  0  0  0  0  0  0  0  0  0  0  0
   -1.4157   -0.9976    0.2416 C   0  0  0  0  0  0  0  0  0  0  0  0
    1.2886   -0.1778    0.0836 N   0  0  0  0  0  0  0  0  0  0  0  0
   -1.8341    1.3769   -0.4070 N   0  0  0  0  0  0  0  0  0  0  0  0
   -2.7739   -1.4403    0.3293 N   0  0  0  0  0  0  0  0  0  0  0  0
   -0.9952    2.4152   -0.6669 C   0  0  0  0  0  0  0  0  0  0  0  0
    0.2856    2.0136   -0.5292 N   0  0  0  0  0  0  0  0  0  0  0  0
    2.6785    0.2194    0.0088 C   0  0  0  0  0  0  0  0  0  0  0  0
    1.7375   -2.1219    0.6170 H   0  0  0  0  0  0  0  0  0  0  0  0
   -3.1306   -2.1131   -0.4077 H   0  0  0  0  0  0  0  0  0  0  0  0
   -3.4261   -1.1380    1.0748 H   0  0  0  0  0  0  0  0  0  0  0  0
   -1.3871    3.3877   -0.9376 H   0  0  0  0  0  0  0  0  0  0  0  0
    3.3023   -0.6264    0.4146 H   0  0  0  0  0  0  0  0  0  0  0  0
    3.0113    0.3317   -1.0529 H   0  0  0  0  0  0  0  0  0  0  0  0
    2.9189    1.1021    0.6136 H   0  0  0  0  0  0  0  0  0  0  0  0
  1  2  2  0
  3  7  1  0
  3  4  1  0
  4 10  2  0
  1  5  1  0
  3  5  2  0
  5  8  1  0
  2  6  1  0
  4  6  1  0
  6 11  1  0
  7  9  2  0
  9 10  1  0
  2 12  1  0
  8 13  1  0
  8 14  1  0
  9 15  1  0
 11 16  1  0
 11 17  1  0
 11 18  1  0
M  END

