46504922
     RDKit          3D

 17 16  0  0  1  0  0  0  0  0999 V2000
    2.0225   -0.0910    0.2094 C   0  0  0  0  0  0  0  0  0  0  0  0
    0.8114   -0.0931   -0.6484 C   0  0  0  0  0  0  0  0  0  0  0  0
   -0.4401   -0.5333    0.0730 C   0  0  1  0  0  0  0  0  0  0  0  0
   -0.7723    0.3538    1.2434 C   0  0  0  0  0  0  0  0  0  0  0  0
   -1.5920   -0.4764   -0.8650 C   0  0  0  0  0  0  0  0  0  0  0  0
   -1.9226    0.7549   -1.4422 O   0  0  0  0  0  0  0  0  0  0  0  0
   -2.2792   -1.4821   -1.1611 O   0  0  0  0  0  0  0  0  0  0  0  0
    2.6108   -1.0273    0.0712 H   0  0  0  0  0  0  0  0  0  0  0  0
    1.8506    0.0198    1.2819 H   0  0  0  0  0  0  0  0  0  0  0  0
    2.7240    0.7341   -0.0895 H   0  0  0  0  0  0  0  0  0  0  0  0
    0.9407   -0.8017   -1.5060 H   0  0  0  0  0  0  0  0  0  0  0  0
    0.6306    0.9081   -1.0871 H   0  0  0  0  0  0  0  0  0  0  0  0
   -0.3315   -1.5662    0.4651 H   0  0  0  0  0  0  0  0  0  0  0  0
   -0.2965   -0.0027    2.1606 H   0  0  0  0  0  0  0  0  0  0  0  0
   -0.5510    1.3982    0.9773 H   0  0  0  0  0  0  0  0  0  0  0  0
   -1.8784    0.2836    1.4112 H   0  0  0  0  0  0  0  0  0  0  0  0
   -1.5270    1.6213   -1.0936 H   0  0  0  0  0  0  0  0  0  0  0  0
  1  2  1  0
  2  3  1  0
  3  4  1  0
  3  5  1  0
  5  6  1  0
  5  7  2  0
  1  8  1  0
  1  9  1  0
  1 10  1  0
  2 11  1  0
  2 12  1  0
  3 13  1  1
  4 14  1  0
  4 15  1  0
  4 16  1  0
  6 17  1  0
M  END

