46508076
     RDKit          3D

 46 49  0  0  1  0  0  0  0  0999 V2000
    3.5286   -0.7710    0.8757 O   0  0  0  0  0  0  0  0  0  0  0  0
    5.6233    0.0657    0.2825 O   0  0  0  0  0  0  0  0  0  0  0  0
   -5.8018   -0.3329    1.0110 O   0  0  0  0  0  0  0  0  0  0  0  0
    0.1698    0.6785    0.2001 C   0  0  2  0  0  0  0  0  0  0  0  0
   -0.6715   -0.4895    0.6329 C   0  0  1  0  0  0  0  0  0  0  0  0
    1.5782    0.5537    0.7568 C   0  0  1  0  0  0  0  0  0  0  0  0
    2.1776   -0.7578    0.3880 C   0  0  2  0  0  0  0  0  0  0  0  0
   -1.8955   -0.4807   -0.2662 C   0  0  1  0  0  0  0  0  0  0  0  0
   -0.0085   -1.8033    0.6080 C   0  0  0  0  0  0  0  0  0  0  0  0
    1.3954   -1.8327    1.1062 C   0  0  0  0  0  0  0  0  0  0  0  0
   -0.4878    1.9376    0.7127 C   0  0  0  0  0  0  0  0  0  0  0  0
    2.4214    1.7344    0.3921 C   0  0  0  0  0  0  0  0  0  0  0  0
   -2.5674    0.8005    0.0290 C   0  0  0  0  0  0  0  0  0  0  0  0
   -1.8094    2.0890   -0.0713 C   0  0  0  0  0  0  0  0  0  0  0  0
    2.2289   -1.0510   -1.0654 C   0  0  0  0  0  0  0  0  0  0  0  0
   -1.4968   -0.4589   -1.7307 C   0  0  0  0  0  0  0  0  0  0  0  0
   -2.7146   -1.6558   -0.0564 C   0  0  0  0  0  0  0  0  0  0  0  0
    3.7027    1.3519   -0.3288 C   0  0  0  0  0  0  0  0  0  0  0  0
    4.3694    0.1864    0.2879 C   0  0  0  0  0  0  0  0  0  0  0  0
   -3.8075    0.8299    0.4317 C   0  0  0  0  0  0  0  0  0  0  0  0
   -3.9612   -1.6541    0.3485 C   0  0  0  0  0  0  0  0  0  0  0  0
   -4.6085   -0.3864    0.6244 C   0  0  0  0  0  0  0  0  0  0  0  0
    0.2719    0.7948   -0.8801 H   0  0  0  0  0  0  0  0  0  0  0  0
   -1.0372   -0.2771    1.6585 H   0  0  0  0  0  0  0  0  0  0  0  0
    1.4611    0.5675    1.8711 H   0  0  0  0  0  0  0  0  0  0  0  0
   -0.0678   -2.2971   -0.4061 H   0  0  0  0  0  0  0  0  0  0  0  0
   -0.6031   -2.5012    1.2703 H   0  0  0  0  0  0  0  0  0  0  0  0
    1.3947   -1.6309    2.1947 H   0  0  0  0  0  0  0  0  0  0  0  0
    1.8306   -2.8256    0.8918 H   0  0  0  0  0  0  0  0  0  0  0  0
    0.0726    2.8518    0.5185 H   0  0  0  0  0  0  0  0  0  0  0  0
   -0.7269    1.8223    1.7890 H   0  0  0  0  0  0  0  0  0  0  0  0
    1.9061    2.4613   -0.2799 H   0  0  0  0  0  0  0  0  0  0  0  0
    2.7391    2.3308    1.2878 H   0  0  0  0  0  0  0  0  0  0  0  0
   -1.5706    2.2447   -1.1316 H   0  0  0  0  0  0  0  0  0  0  0  0
   -2.3854    2.8869    0.4091 H   0  0  0  0  0  0  0  0  0  0  0  0
    1.7577   -0.3200   -1.7221 H   0  0  0  0  0  0  0  0  0  0  0  0
    1.7442   -2.0427   -1.3078 H   0  0  0  0  0  0  0  0  0  0  0  0
    3.2839   -1.1779   -1.4506 H   0  0  0  0  0  0  0  0  0  0  0  0
   -0.6586   -1.1196   -1.9636 H   0  0  0  0  0  0  0  0  0  0  0  0
   -1.2984    0.5233   -2.1424 H   0  0  0  0  0  0  0  0  0  0  0  0
   -2.3814   -0.8609   -2.2901 H   0  0  0  0  0  0  0  0  0  0  0  0
   -2.2652   -2.6316   -0.2490 H   0  0  0  0  0  0  0  0  0  0  0  0
    3.5544    1.2420   -1.4199 H   0  0  0  0  0  0  0  0  0  0  0  0
    4.4134    2.2201   -0.2179 H   0  0  0  0  0  0  0  0  0  0  0  0
   -4.3092    1.7736    0.6454 H   0  0  0  0  0  0  0  0  0  0  0  0
   -4.4910   -2.5884    0.4721 H   0  0  0  0  0  0  0  0  0  0  0  0
  1  7  1  0
  1 19  1  0
  2 19  2  0
  3 22  2  0
  4  5  1  0
  4  6  1  0
  4 11  1  0
  5  8  1  0
  5  9  1  0
  6  7  1  0
  6 12  1  0
  7 10  1  0
  7 15  1  6
  8 13  1  0
  8 16  1  6
  8 17  1  0
  9 10  1  0
 11 14  1  0
 12 18  1  0
 13 14  1  0
 13 20  2  0
 17 21  2  0
 18 19  1  0
 20 22  1  0
 21 22  1  0
  4 23  1  6
  5 24  1  1
  6 25  1  1
  9 26  1  0
  9 27  1  0
 10 28  1  0
 10 29  1  0
 11 30  1  0
 11 31  1  0
 12 32  1  0
 12 33  1  0
 14 34  1  0
 14 35  1  0
 15 36  1  0
 15 37  1  0
 15 38  1  0
 16 39  1  0
 16 40  1  0
 16 41  1  0
 17 42  1  0
 18 43  1  0
 18 44  1  0
 20 45  1  0
 21 46  1  0
M  END

