46504609
     RDKit          3D

 54 56  0  0  0  0  0  0  0  0999 V2000
   -4.5113    0.2468    0.9206 C   0  0  0  0  0  0  0  0  0  0  0  0
   -4.9057    1.8868   -0.8658 C   0  0  0  0  0  0  0  0  0  0  0  0
   -0.3631   -0.6778   -1.6487 C   0  0  0  0  0  0  0  0  0  0  0  0
    1.8896   -1.7564   -1.1673 C   0  0  0  0  0  0  0  0  0  0  0  0
    1.2832   -0.9555   -3.4158 C   0  0  0  0  0  0  0  0  0  0  0  0
   -2.4827   -0.5035    2.0652 C   0  0  0  0  0  0  0  0  0  0  0  0
   -3.0683   -0.1830    0.8519 C   0  0  0  0  0  0  0  0  0  0  0  0
   -2.3845   -0.2531   -0.3172 C   0  0  0  0  0  0  0  0  0  0  0  0
   -1.0463   -0.6515   -0.3827 C   0  0  0  0  0  0  0  0  0  0  0  0
   -0.4541   -0.9697    0.8012 C   0  0  0  0  0  0  0  0  0  0  0  0
   -1.1678   -0.8957    2.0095 C   0  0  0  0  0  0  0  0  0  0  0  0
   -3.2160   -0.4230    3.2696 N   0  0  0  0  0  0  0  0  0  0  0  0
   -5.0265    0.5579   -0.3956 N   0  0  0  0  0  0  0  0  0  0  0  0
   -5.6593   -0.4177   -1.2579 C   0  0  0  0  0  0  0  0  0  0  0  0
   -5.3311    2.2105   -1.9899 O   0  0  0  0  0  0  0  0  0  0  0  0
   -4.2689    2.9354   -0.0349 C   0  0  0  0  0  0  0  0  0  0  0  0
    0.8933   -1.1444   -1.9572 N   0  0  0  0  0  0  0  0  0  0  0  0
   -1.0787   -0.1710   -2.6468 O   0  0  0  0  0  0  0  0  0  0  0  0
    2.8442   -0.7909   -0.5384 C   0  0  0  0  0  0  0  0  0  0  0  0
    2.8416    0.5677   -0.6569 C   0  0  0  0  0  0  0  0  0  0  0  0
    3.9054    1.0586    0.0944 C   0  0  0  0  0  0  0  0  0  0  0  0
    4.5135   -0.0280    0.6411 C   0  0  0  0  0  0  0  0  0  0  0  0
    3.8582   -1.1374    0.2476 N   0  0  0  0  0  0  0  0  0  0  0  0
    4.2563   -2.4694    0.6588 C   0  0  0  0  0  0  0  0  0  0  0  0
    4.3931    2.3255    0.3494 C   0  0  0  0  0  0  0  0  0  0  0  0
    5.4986    2.5378    1.1557 C   0  0  0  0  0  0  0  0  0  0  0  0
    5.6265    0.1798    1.4534 C   0  0  0  0  0  0  0  0  0  0  0  0
    6.1213    1.4401    1.7144 C   0  0  0  0  0  0  0  0  0  0  0  0
   -5.1222   -0.5698    1.3948 H   0  0  0  0  0  0  0  0  0  0  0  0
   -4.5392    1.1223    1.5989 H   0  0  0  0  0  0  0  0  0  0  0  0
    1.5985   -2.5369   -0.4563 H   0  0  0  0  0  0  0  0  0  0  0  0
    2.5445   -2.3736   -1.8994 H   0  0  0  0  0  0  0  0  0  0  0  0
    0.3782   -1.0122   -4.0419 H   0  0  0  0  0  0  0  0  0  0  0  0
    1.7688    0.0186   -3.4998 H   0  0  0  0  0  0  0  0  0  0  0  0
    1.9649   -1.7610   -3.7100 H   0  0  0  0  0  0  0  0  0  0  0  0
   -2.8896    0.0066   -1.2341 H   0  0  0  0  0  0  0  0  0  0  0  0
    0.5743   -1.2736    0.8950 H   0  0  0  0  0  0  0  0  0  0  0  0
   -0.6741   -1.1567    2.9549 H   0  0  0  0  0  0  0  0  0  0  0  0
   -4.2235   -0.6314    3.2599 H   0  0  0  0  0  0  0  0  0  0  0  0
   -2.7496   -0.1591    4.1475 H   0  0  0  0  0  0  0  0  0  0  0  0
   -5.0800   -0.4134   -2.2197 H   0  0  0  0  0  0  0  0  0  0  0  0
   -6.7069   -0.0912   -1.4513 H   0  0  0  0  0  0  0  0  0  0  0  0
   -5.6953   -1.4194   -0.8161 H   0  0  0  0  0  0  0  0  0  0  0  0
   -3.3638    2.4455    0.4305 H   0  0  0  0  0  0  0  0  0  0  0  0
   -3.9569    3.7891   -0.6607 H   0  0  0  0  0  0  0  0  0  0  0  0
   -4.9004    3.2337    0.8338 H   0  0  0  0  0  0  0  0  0  0  0  0
    2.1681    1.1976   -1.2133 H   0  0  0  0  0  0  0  0  0  0  0  0
    4.5357   -2.4091    1.7313 H   0  0  0  0  0  0  0  0  0  0  0  0
    5.1012   -2.8393    0.0491 H   0  0  0  0  0  0  0  0  0  0  0  0
    3.4219   -3.1941    0.5942 H   0  0  0  0  0  0  0  0  0  0  0  0
    3.9045    3.1736   -0.0879 H   0  0  0  0  0  0  0  0  0  0  0  0
    5.8941    3.5101    1.3674 H   0  0  0  0  0  0  0  0  0  0  0  0
    6.1029   -0.6835    1.8828 H   0  0  0  0  0  0  0  0  0  0  0  0
    6.9833    1.5085    2.3515 H   0  0  0  0  0  0  0  0  0  0  0  0
  1  7  1  0
  1 13  1  0
  2 13  1  0
  2 15  2  0
  2 16  1  0
  3  9  1  0
  3 17  1  0
  3 18  2  0
  4 17  1  0
  4 19  1  0
  5 17  1  0
  6  7  2  0
  6 11  1  0
  6 12  1  0
  7  8  1  0
  8  9  2  0
  9 10  1  0
 10 11  2  0
 13 14  1  0
 19 20  2  0
 19 23  1  0
 20 21  1  0
 21 22  2  0
 21 25  1  0
 22 23  1  0
 22 27  1  0
 23 24  1  0
 25 26  2  0
 26 28  1  0
 27 28  2  0
  1 29  1  0
  1 30  1  0
  4 31  1  0
  4 32  1  0
  5 33  1  0
  5 34  1  0
  5 35  1  0
  8 36  1  0
 10 37  1  0
 11 38  1  0
 12 39  1  0
 12 40  1  0
 14 41  1  0
 14 42  1  0
 14 43  1  0
 16 44  1  0
 16 45  1  0
 16 46  1  0
 20 47  1  0
 24 48  1  0
 24 49  1  0
 24 50  1  0
 25 51  1  0
 26 52  1  0
 27 53  1  0
 28 54  1  0
M  END

