46508409
     RDKit          3D

 85 89  0  0  1  0  0  0  0  0999 V2000
    5.8220   -3.3852    1.9481 O   0  0  0  0  0  0  0  0  0  0  0  0
   -5.0982   -0.1782   -4.3086 O   0  0  0  0  0  0  0  0  0  0  0  0
   -2.7736    1.1371   -0.3414 O   0  0  0  0  0  0  0  0  0  0  0  0
    2.1856    0.9082    0.0243 O   0  0  0  0  0  0  0  0  0  0  0  0
   -0.6473    1.0755   -2.1348 O   0  0  0  0  0  0  0  0  0  0  0  0
    0.2496   -1.4940   -1.8431 O   0  0  0  0  0  0  0  0  0  0  0  0
    8.1996   -0.6685    2.1638 O   0  0  0  0  0  0  0  0  0  0  0  0
   -2.0894   -2.1929   -1.3248 O   0  0  0  0  0  0  0  0  0  0  0  0
    2.7652   -2.1215   -1.6705 O   0  0  0  0  0  0  0  0  0  0  0  0
   -3.8352   -0.8150   -1.9110 N   0  0  0  0  0  0  0  0  0  0  0  0
    3.7561   -1.1594    0.1518 N   0  0  0  0  0  0  0  0  0  0  0  0
   -4.4706   -1.8194   -2.7009 C   0  0  2  0  0  0  0  0  0  0  0  0
   -4.5873   -1.4546   -4.1571 C   0  0  1  0  0  0  0  0  0  0  0  0
    4.7144   -2.2372    0.3172 C   0  0  1  0  0  0  0  0  0  0  0  0
   -5.6853   -2.4228   -4.6028 C   0  0  0  0  0  0  0  0  0  0  0  0
   -5.8696   -2.0445   -2.2869 C   0  0  0  0  0  0  0  0  0  0  0  0
    6.0846   -1.6174    0.4353 C   0  0  0  0  0  0  0  0  0  0  0  0
   -6.5800   -2.4042   -3.4020 C   0  0  0  0  0  0  0  0  0  0  0  0
    6.7365   -2.4508    1.4883 C   0  0  1  0  0  0  0  0  0  0  0  0
    4.5550   -2.8737    1.6848 C   0  0  0  0  0  0  0  0  0  0  0  0
   -0.6201    0.4619   -0.8853 C   0  0  2  0  0  0  0  0  0  0  0  0
    0.4630   -0.5780   -0.8154 C   0  0  2  0  0  0  0  0  0  0  0  0
   -1.9608   -0.0034   -0.3998 C   0  0  2  0  0  0  0  0  0  0  0  0
    1.8551   -0.0014   -0.9688 C   0  0  2  0  0  0  0  0  0  0  0  0
   -2.6032   -1.0549   -1.2153 C   0  0  0  0  0  0  0  0  0  0  0  0
   -6.5041   -1.9594   -1.0604 C   0  0  0  0  0  0  0  0  0  0  0  0
    2.7865   -1.1467   -0.8769 C   0  0  0  0  0  0  0  0  0  0  0  0
   -7.9371   -2.6728   -3.2430 C   0  0  0  0  0  0  0  0  0  0  0  0
    7.2919   -1.6005    2.6096 C   0  0  0  0  0  0  0  0  0  0  0  0
   -7.8398   -2.2278   -0.9269 C   0  0  0  0  0  0  0  0  0  0  0  0
   -8.5759   -2.5913   -2.0311 C   0  0  0  0  0  0  0  0  0  0  0  0
   -3.2660    1.4646    0.8745 C   0  0  0  0  0  0  0  0  0  0  0  0
    2.5895    2.1353   -0.4981 C   0  0  0  0  0  0  0  0  0  0  0  0
   -2.2350    1.7692    1.8924 C   0  0  0  0  0  0  0  0  0  0  0  0
    2.9226    3.0120    0.6553 C   0  0  0  0  0  0  0  0  0  0  0  0
   -1.6164    3.0071    1.8868 C   0  0  0  0  0  0  0  0  0  0  0  0
   -1.8383    0.8982    2.8855 C   0  0  0  0  0  0  0  0  0  0  0  0
    2.1709    4.0835    1.0473 C   0  0  0  0  0  0  0  0  0  0  0  0
    4.0764    2.7035    1.3795 C   0  0  0  0  0  0  0  0  0  0  0  0
   -0.6586    3.3875    2.7981 C   0  0  0  0  0  0  0  0  0  0  0  0
   -0.8770    1.2638    3.8095 C   0  0  0  0  0  0  0  0  0  0  0  0
    2.5811    4.8121    2.1369 C   0  0  0  0  0  0  0  0  0  0  0  0
    4.4869    3.4259    2.4637 C   0  0  0  0  0  0  0  0  0  0  0  0
   -0.2740    2.5102    3.7808 C   0  0  0  0  0  0  0  0  0  0  0  0
    3.7224    4.5135    2.8599 C   0  0  0  0  0  0  0  0  0  0  0  0
   -4.5809    0.3260   -4.9820 H   0  0  0  0  0  0  0  0  0  0  0  0
   -1.5614    1.1665   -2.4968 H   0  0  0  0  0  0  0  0  0  0  0  0
   -0.0039   -0.9682   -2.6541 H   0  0  0  0  0  0  0  0  0  0  0  0
    8.9242   -0.4538    2.8088 H   0  0  0  0  0  0  0  0  0  0  0  0
   -4.2582    0.1229   -1.8223 H   0  0  0  0  0  0  0  0  0  0  0  0
    3.8260   -0.3819    0.8484 H   0  0  0  0  0  0  0  0  0  0  0  0
   -3.8637   -2.7690   -2.6674 H   0  0  0  0  0  0  0  0  0  0  0  0
   -3.6938   -1.6663   -4.7539 H   0  0  0  0  0  0  0  0  0  0  0  0
    4.6753   -2.9855   -0.4842 H   0  0  0  0  0  0  0  0  0  0  0  0
   -5.2904   -3.4449   -4.7366 H   0  0  0  0  0  0  0  0  0  0  0  0
   -6.2062   -2.0747   -5.5060 H   0  0  0  0  0  0  0  0  0  0  0  0
    5.9814   -0.5744    0.8437 H   0  0  0  0  0  0  0  0  0  0  0  0
    6.6331   -1.6076   -0.5303 H   0  0  0  0  0  0  0  0  0  0  0  0
    7.5843   -2.9968    1.0273 H   0  0  0  0  0  0  0  0  0  0  0  0
    3.8664   -3.7387    1.6075 H   0  0  0  0  0  0  0  0  0  0  0  0
    4.2380   -2.0985    2.3857 H   0  0  0  0  0  0  0  0  0  0  0  0
   -0.2542    1.3146   -0.1988 H   0  0  0  0  0  0  0  0  0  0  0  0
    0.3988   -1.1449    0.1335 H   0  0  0  0  0  0  0  0  0  0  0  0
   -1.8833   -0.3841    0.6381 H   0  0  0  0  0  0  0  0  0  0  0  0
    1.9759    0.4945   -1.9679 H   0  0  0  0  0  0  0  0  0  0  0  0
   -5.9456   -1.6781   -0.1933 H   0  0  0  0  0  0  0  0  0  0  0  0
   -8.5227   -2.9591   -4.1112 H   0  0  0  0  0  0  0  0  0  0  0  0
    6.4525   -1.0600    3.0991 H   0  0  0  0  0  0  0  0  0  0  0  0
    7.8151   -2.2668    3.3424 H   0  0  0  0  0  0  0  0  0  0  0  0
   -8.3733   -2.1690    0.0268 H   0  0  0  0  0  0  0  0  0  0  0  0
   -9.6440   -2.8088   -1.9378 H   0  0  0  0  0  0  0  0  0  0  0  0
   -3.8361    2.4343    0.7457 H   0  0  0  0  0  0  0  0  0  0  0  0
   -4.0151    0.7558    1.2853 H   0  0  0  0  0  0  0  0  0  0  0  0
    1.6924    2.5863   -0.9753 H   0  0  0  0  0  0  0  0  0  0  0  0
    3.4609    2.0899   -1.1480 H   0  0  0  0  0  0  0  0  0  0  0  0
   -1.8872    3.7419    1.1264 H   0  0  0  0  0  0  0  0  0  0  0  0
   -2.2738   -0.0692    2.9515 H   0  0  0  0  0  0  0  0  0  0  0  0
    1.2637    4.3176    0.4698 H   0  0  0  0  0  0  0  0  0  0  0  0
    4.6770    1.8602    1.0813 H   0  0  0  0  0  0  0  0  0  0  0  0
   -0.1981    4.3813    2.7568 H   0  0  0  0  0  0  0  0  0  0  0  0
   -0.5893    0.5544    4.5782 H   0  0  0  0  0  0  0  0  0  0  0  0
    2.0117    5.6598    2.4696 H   0  0  0  0  0  0  0  0  0  0  0  0
    5.3642    3.2064    3.0304 H   0  0  0  0  0  0  0  0  0  0  0  0
    0.4737    2.7707    4.5138 H   0  0  0  0  0  0  0  0  0  0  0  0
    3.9947    5.1238    3.7074 H   0  0  0  0  0  0  0  0  0  0  0  0
  1 19  1  0
  1 20  1  0
 13  2  1  0
 23  3  1  0
  3 32  1  0
 24  4  1  0
  4 33  1  0
 21  5  1  0
 22  6  1  0
  7 29  1  0
  8 25  2  0
  9 27  2  0
 12 10  1  0
 10 25  1  0
 14 11  1  0
 11 27  1  0
 12 13  1  0
 12 16  1  0
 13 15  1  0
 14 17  1  0
 14 20  1  0
 15 18  1  0
 16 18  2  0
 16 26  1  0
 17 19  1  0
 18 28  1  0
 19 29  1  0
 21 22  1  0
 21 23  1  0
 22 24  1  0
 23 25  1  0
 24 27  1  0
 26 30  2  0
 28 31  2  0
 30 31  1  0
 32 34  1  0
 33 35  1  0
 34 36  2  0
 34 37  1  0
 35 38  2  0
 35 39  1  0
 36 40  1  0
 37 41  2  0
 38 42  1  0
 39 43  2  0
 40 44  2  0
 41 44  1  0
 42 45  2  0
 43 45  1  0
  2 46  1  0
  5 47  1  0
  6 48  1  0
  7 49  1  0
 10 50  1  0
 11 51  1  0
 12 52  1  6
 13 53  1  6
 14 54  1  6
 15 55  1  0
 15 56  1  0
 17 57  1  0
 17 58  1  0
 19 59  1  6
 20 60  1  0
 20 61  1  0
 21 62  1  1
 22 63  1  1
 23 64  1  1
 24 65  1  6
 26 66  1  0
 28 67  1  0
 29 68  1  0
 29 69  1  0
 30 70  1  0
 31 71  1  0
 32 72  1  0
 32 73  1  0
 33 74  1  0
 33 75  1  0
 36 76  1  0
 37 77  1  0
 38 78  1  0
 39 79  1  0
 40 80  1  0
 41 81  1  0
 42 82  1  0
 43 83  1  0
 44 84  1  0
 45 85  1  0
M  END

