46507699
     RDKit          3D

 75 77  0  0  1  0  0  0  0  0999 V2000
    0.4348   -1.9384   -1.5790 C   0  0  0  0  0  0  0  0  0  0  0  0
   -1.6618   -1.1177    0.1354 C   0  0  0  0  0  0  0  0  0  0  0  0
   -0.1120    0.7366    0.8116 C   0  0  0  0  0  0  0  0  0  0  0  0
    1.4423    0.7893    0.7037 C   0  0  0  0  0  0  0  0  0  0  0  0
   -0.9965   -2.3786   -1.7848 C   0  0  0  0  0  0  0  0  0  0  0  0
   -2.7358   -0.3954    0.4608 C   0  0  0  0  0  0  0  0  0  0  0  0
   -1.7546   -2.4661   -0.4610 C   0  0  0  0  0  0  0  0  0  0  0  0
   -4.0892   -0.8563    0.2640 C   0  0  0  0  0  0  0  0  0  0  0  0
   -5.0916   -0.0833    0.6113 C   0  0  0  0  0  0  0  0  0  0  0  0
   -4.9517    1.2285    1.1906 C   0  0  0  0  0  0  0  0  0  0  0  0
   -6.4845   -0.6047    0.3918 C   0  0  2  0  0  0  0  0  0  0  0  0
   -5.7054    2.2015    0.2592 C   0  0  2  0  0  0  0  0  0  0  0  0
   -7.1887    0.3413   -0.5192 C   0  0  0  0  0  0  0  0  0  0  0  0
   -7.1044    1.7485    0.0043 C   0  0  0  0  0  0  0  0  0  0  0  0
    3.0106   -0.2989   -2.6372 C   0  0  0  0  0  0  0  0  0  0  0  0
    2.6727    0.5512   -1.4228 C   0  0  2  0  0  0  0  0  0  0  0  0
    3.9895    0.9046   -0.8383 C   0  0  0  0  0  0  0  0  0  0  0  0
    4.3745    0.5121    0.3551 C   0  0  0  0  0  0  0  0  0  0  0  0
    6.5459   -1.1937   -0.0594 C   0  0  0  0  0  0  0  0  0  0  0  0
    6.4246   -0.4101    1.2305 C   0  0  0  0  0  0  0  0  0  0  0  0
    7.7710   -0.2004    1.8529 C   0  0  0  0  0  0  0  0  0  0  0  0
    5.7252    0.8988    0.9153 C   0  0  1  0  0  0  0  0  0  0  0  0
    1.7941   -0.1216   -0.4525 C   0  0  2  0  0  0  0  0  0  0  0  0
   -0.2973   -0.6617    0.3285 C   0  0  2  0  0  0  0  0  0  0  0  0
    0.4757   -0.5541   -0.9908 C   0  0  2  0  0  0  0  0  0  0  0  0
   -0.1839    0.4200   -1.9210 C   0  0  0  0  0  0  0  0  0  0  0  0
    6.4959    1.7414   -0.0445 C   0  0  0  0  0  0  0  0  0  0  0  0
   -7.1465   -0.6393    1.7489 C   0  0  0  0  0  0  0  0  0  0  0  0
   -4.9772    2.3601   -0.8963 O   0  0  0  0  0  0  0  0  0  0  0  0
    0.8709   -1.8841   -2.6060 H   0  0  0  0  0  0  0  0  0  0  0  0
    0.9614   -2.6898   -0.9983 H   0  0  0  0  0  0  0  0  0  0  0  0
   -0.4713    1.5328    0.1718 H   0  0  0  0  0  0  0  0  0  0  0  0
   -0.4300    0.9175    1.8495 H   0  0  0  0  0  0  0  0  0  0  0  0
    1.7958    0.4388    1.6938 H   0  0  0  0  0  0  0  0  0  0  0  0
    1.7998    1.8053    0.5477 H   0  0  0  0  0  0  0  0  0  0  0  0
   -1.0413   -3.3498   -2.2768 H   0  0  0  0  0  0  0  0  0  0  0  0
   -1.5582   -1.6471   -2.4081 H   0  0  0  0  0  0  0  0  0  0  0  0
   -2.4730    0.5621    0.8841 H   0  0  0  0  0  0  0  0  0  0  0  0
   -2.7256   -2.8847   -0.6074 H   0  0  0  0  0  0  0  0  0  0  0  0
   -1.1115   -3.1615    0.1670 H   0  0  0  0  0  0  0  0  0  0  0  0
   -4.3022   -1.8566   -0.1779 H   0  0  0  0  0  0  0  0  0  0  0  0
   -5.4461    1.2789    2.1983 H   0  0  0  0  0  0  0  0  0  0  0  0
   -3.9805    1.6740    1.3137 H   0  0  0  0  0  0  0  0  0  0  0  0
   -6.4719   -1.6302   -0.0008 H   0  0  0  0  0  0  0  0  0  0  0  0
   -5.7417    3.1551    0.8095 H   0  0  0  0  0  0  0  0  0  0  0  0
   -6.8432    0.2702   -1.5524 H   0  0  0  0  0  0  0  0  0  0  0  0
   -8.2758    0.0652   -0.5112 H   0  0  0  0  0  0  0  0  0  0  0  0
   -7.7485    1.8996    0.8918 H   0  0  0  0  0  0  0  0  0  0  0  0
   -7.5197    2.4106   -0.7881 H   0  0  0  0  0  0  0  0  0  0  0  0
    4.0092    0.0211   -3.0642 H   0  0  0  0  0  0  0  0  0  0  0  0
    2.3087   -0.1749   -3.4726 H   0  0  0  0  0  0  0  0  0  0  0  0
    3.1793   -1.3398   -2.3168 H   0  0  0  0  0  0  0  0  0  0  0  0
    2.1588    1.4952   -1.7450 H   0  0  0  0  0  0  0  0  0  0  0  0
    4.7085    1.5228   -1.3960 H   0  0  0  0  0  0  0  0  0  0  0  0
    3.8040   -0.1202    1.0108 H   0  0  0  0  0  0  0  0  0  0  0  0
    7.4908   -0.8737   -0.5655 H   0  0  0  0  0  0  0  0  0  0  0  0
    6.5346   -2.2746    0.0859 H   0  0  0  0  0  0  0  0  0  0  0  0
    5.7272   -0.8953   -0.7548 H   0  0  0  0  0  0  0  0  0  0  0  0
    5.7768   -0.9887    1.9192 H   0  0  0  0  0  0  0  0  0  0  0  0
    7.9781    0.8575    2.1137 H   0  0  0  0  0  0  0  0  0  0  0  0
    7.9180   -0.8393    2.7556 H   0  0  0  0  0  0  0  0  0  0  0  0
    8.5456   -0.4952    1.1174 H   0  0  0  0  0  0  0  0  0  0  0  0
    5.6084    1.4312    1.8809 H   0  0  0  0  0  0  0  0  0  0  0  0
    2.2548   -1.0373    0.0078 H   0  0  0  0  0  0  0  0  0  0  0  0
    0.2628   -1.3437    0.9680 H   0  0  0  0  0  0  0  0  0  0  0  0
   -1.2925    0.4287   -1.7911 H   0  0  0  0  0  0  0  0  0  0  0  0
    0.0058    0.1349   -2.9606 H   0  0  0  0  0  0  0  0  0  0  0  0
    0.1563    1.4555   -1.7535 H   0  0  0  0  0  0  0  0  0  0  0  0
    5.9473    2.6582   -0.2547 H   0  0  0  0  0  0  0  0  0  0  0  0
    7.4959    1.9361    0.4004 H   0  0  0  0  0  0  0  0  0  0  0  0
    6.6626    1.1518   -0.9836 H   0  0  0  0  0  0  0  0  0  0  0  0
   -6.4944   -1.1609    2.4975 H   0  0  0  0  0  0  0  0  0  0  0  0
   -8.1311   -1.1503    1.7359 H   0  0  0  0  0  0  0  0  0  0  0  0
   -7.3194    0.3724    2.1729 H   0  0  0  0  0  0  0  0  0  0  0  0
   -5.2590    1.8088   -1.6507 H   0  0  0  0  0  0  0  0  0  0  0  0
 24 25  1  0
 23 25  1  0
  1 25  1  0
  2 24  1  0
  3 24  1  0
  4 23  1  0
  1  5  1  0
  2  6  2  0
  2  7  1  0
  6  8  1  0
  8  9  2  0
  9 10  1  0
  9 11  1  0
 10 12  1  0
 11 13  1  0
 12 14  1  0
  3  4  1  0
  5  7  1  0
 13 14  1  0
 16 23  1  0
 16 15  1  0
 16 17  1  0
 17 18  2  0
 18 22  1  0
 20 22  1  0
 19 20  1  0
 20 21  1  0
 25 26  1  6
 22 27  1  0
 11 28  1  0
 12 29  1  0
  1 30  1  0
  1 31  1  0
  3 32  1  0
  3 33  1  0
  4 34  1  0
  4 35  1  0
  5 36  1  0
  5 37  1  0
  6 38  1  0
  7 39  1  0
  7 40  1  0
  8 41  1  0
 10 42  1  0
 10 43  1  0
 11 44  1  6
 12 45  1  1
 13 46  1  0
 13 47  1  0
 14 48  1  0
 14 49  1  0
 15 50  1  0
 15 51  1  0
 15 52  1  0
 16 53  1  6
 17 54  1  0
 18 55  1  0
 19 56  1  0
 19 57  1  0
 19 58  1  0
 20 59  1  0
 21 60  1  0
 21 61  1  0
 21 62  1  0
 22 63  1  1
 23 64  1  1
 24 65  1  1
 26 66  1  0
 26 67  1  0
 26 68  1  0
 27 69  1  0
 27 70  1  0
 27 71  1  0
 28 72  1  0
 28 73  1  0
 28 74  1  0
 29 75  1  0
M  END

