46507559
     RDKit          3D

 24 24  0  0  1  0  0  0  0  0999 V2000
   -2.4316   -1.0712   -0.3141 C   0  0  0  0  0  0  0  0  0  0  0  0
   -1.0431   -0.7280    0.0814 C   0  0  2  0  0  0  0  0  0  0  0  0
   -0.7075    0.7505   -0.1565 C   0  0  2  0  0  0  0  0  0  0  0  0
    0.6058    0.9410    0.5869 C   0  0  1  0  0  0  0  0  0  0  0  0
    1.6278    0.1875   -0.2608 C   0  0  2  0  0  0  0  0  0  0  0  0
    1.1834   -1.2631   -0.2678 C   0  0  2  0  0  0  0  0  0  0  0  0
   -1.7210    1.6367    0.1819 N   0  0  0  0  0  0  0  0  0  0  0  0
    0.9325    2.2412    0.8050 O   0  0  0  0  0  0  0  0  0  0  0  0
    2.8689    0.3138    0.3049 O   0  0  0  0  0  0  0  0  0  0  0  0
    1.9852   -1.9155   -1.2340 O   0  0  0  0  0  0  0  0  0  0  0  0
   -0.1142   -1.4429   -0.6424 O   0  0  0  0  0  0  0  0  0  0  0  0
   -2.8534   -1.8026    0.4359 H   0  0  0  0  0  0  0  0  0  0  0  0
   -2.5189   -1.4948   -1.3333 H   0  0  0  0  0  0  0  0  0  0  0  0
   -3.0597   -0.1554   -0.2604 H   0  0  0  0  0  0  0  0  0  0  0  0
   -0.9433   -0.8674    1.1848 H   0  0  0  0  0  0  0  0  0  0  0  0
   -0.5112    0.8138   -1.2678 H   0  0  0  0  0  0  0  0  0  0  0  0
    0.5509    0.3717    1.5502 H   0  0  0  0  0  0  0  0  0  0  0  0
    1.5963    0.5881   -1.3158 H   0  0  0  0  0  0  0  0  0  0  0  0
    1.4380   -1.7081    0.7235 H   0  0  0  0  0  0  0  0  0  0  0  0
   -1.8875    2.4572   -0.4050 H   0  0  0  0  0  0  0  0  0  0  0  0
   -2.2068    1.5581    1.0572 H   0  0  0  0  0  0  0  0  0  0  0  0
    0.9571    2.4162    1.8000 H   0  0  0  0  0  0  0  0  0  0  0  0
    3.5199    0.5661   -0.4141 H   0  0  0  0  0  0  0  0  0  0  0  0
    2.7324   -2.3930   -0.8396 H   0  0  0  0  0  0  0  0  0  0  0  0
  2  1  1  0
  2  3  1  0
  3  4  1  0
  4  5  1  0
  5  6  1  0
  3  7  1  0
  4  8  1  0
  5  9  1  0
  6 10  1  0
  2 11  1  0
  6 11  1  0
  1 12  1  0
  1 13  1  0
  1 14  1  0
  2 15  1  1
  3 16  1  6
  4 17  1  1
  5 18  1  6
  6 19  1  1
  7 20  1  0
  7 21  1  0
  8 22  1  0
  9 23  1  0
 10 24  1  0
M  END

