46508583
     RDKit          3D

 27 27  0  0  1  0  0  0  0  0999 V2000
    3.2823   -0.8185   -0.7958 C   0  0  0  0  0  0  0  0  0  0  0  0
    2.6203    0.0355    0.0525 O   0  0  0  0  0  0  0  0  0  0  0  0
    1.2348   -0.1039    0.0210 C   0  0  1  0  0  0  0  0  0  0  0  0
    0.7207   -0.5133    1.2235 O   0  0  0  0  0  0  0  0  0  0  0  0
   -0.6470   -0.6026    1.1931 C   0  0  2  0  0  0  0  0  0  0  0  0
   -1.1852   -1.6414    0.2497 C   0  0  0  0  0  0  0  0  0  0  0  0
   -2.5792   -1.6453    0.3023 O   0  0  0  0  0  0  0  0  0  0  0  0
   -1.2170    0.7683    0.9503 C   0  0  2  0  0  0  0  0  0  0  0  0
   -2.5893    0.8319    1.1484 O   0  0  0  0  0  0  0  0  0  0  0  0
   -0.8016    1.3157   -0.3999 C   0  0  2  0  0  0  0  0  0  0  0  0
   -1.5062    0.7534   -1.4467 O   0  0  0  0  0  0  0  0  0  0  0  0
    0.6737    1.1750   -0.5158 C   0  0  1  0  0  0  0  0  0  0  0  0
    1.2565    2.2224    0.2321 O   0  0  0  0  0  0  0  0  0  0  0  0
    3.0046   -0.6868   -1.8624 H   0  0  0  0  0  0  0  0  0  0  0  0
    3.1728   -1.8689   -0.4484 H   0  0  0  0  0  0  0  0  0  0  0  0
    4.3639   -0.5812   -0.7264 H   0  0  0  0  0  0  0  0  0  0  0  0
    1.0431   -0.9230   -0.7335 H   0  0  0  0  0  0  0  0  0  0  0  0
   -1.0126   -0.9046    2.2197 H   0  0  0  0  0  0  0  0  0  0  0  0
   -0.8300   -2.6310    0.6015 H   0  0  0  0  0  0  0  0  0  0  0  0
   -0.9015   -1.5128   -0.7929 H   0  0  0  0  0  0  0  0  0  0  0  0
   -2.9702   -2.3248   -0.2775 H   0  0  0  0  0  0  0  0  0  0  0  0
   -0.7584    1.4437    1.7114 H   0  0  0  0  0  0  0  0  0  0  0  0
   -2.8893    0.1348    1.7851 H   0  0  0  0  0  0  0  0  0  0  0  0
   -1.0438    2.4042   -0.3842 H   0  0  0  0  0  0  0  0  0  0  0  0
   -2.1495    1.3706   -1.8735 H   0  0  0  0  0  0  0  0  0  0  0  0
    1.0029    1.2672   -1.5732 H   0  0  0  0  0  0  0  0  0  0  0  0
    0.7053    3.0353    0.1397 H   0  0  0  0  0  0  0  0  0  0  0  0
  1  2  1  0
  3  2  1  0
  3  4  1  0
  4  5  1  0
  5  6  1  0
  6  7  1  0
  5  8  1  0
  8  9  1  0
  8 10  1  0
 10 11  1  0
 10 12  1  0
  3 12  1  0
 12 13  1  0
  1 14  1  0
  1 15  1  0
  1 16  1  0
  3 17  1  6
  5 18  1  1
  6 19  1  0
  6 20  1  0
  7 21  1  0
  8 22  1  1
  9 23  1  0
 10 24  1  1
 11 25  1  0
 12 26  1  6
 13 27  1  0
M  END

