46507814
     RDKit          3D

 52 55  0  0  1  0  0  0  0  0999 V2000
    3.6057   -0.5119   -0.7254 N   0  0  2  0  0  4  0  0  0  0  0  0
    1.6828    0.3101    0.4460 C   0  0  0  0  0  0  0  0  0  0  0  0
    2.3550   -0.9259   -0.1127 C   0  0  0  0  0  0  0  0  0  0  0  0
    2.2088    1.5202   -0.2726 C   0  0  1  0  0  0  0  0  0  0  0  0
    4.2792    0.3177    0.2510 C   0  0  0  0  0  0  0  0  0  0  0  0
    3.3489    0.2136   -1.9734 C   0  0  0  0  0  0  0  0  0  0  0  0
    3.6573    1.7022    0.1397 C   0  0  0  0  0  0  0  0  0  0  0  0
    2.2436    1.2450   -1.7827 C   0  0  0  0  0  0  0  0  0  0  0  0
    4.4423   -1.6311   -1.0643 C   0  0  0  0  0  0  0  0  0  0  0  0
    0.2900    0.1318    0.3133 O   0  0  0  0  0  0  0  0  0  0  0  0
   -0.5800    0.0737    1.3889 C   0  0  0  0  0  0  0  0  0  0  0  0
   -2.0280   -0.1096    1.3460 C   0  0  0  0  0  0  0  0  0  0  0  0
   -0.0240    0.1947    2.5146 O   0  0  0  0  0  0  0  0  0  0  0  0
   -2.4909   -0.1766    2.6870 O   0  0  0  0  0  0  0  0  0  0  0  0
   -2.7275    1.0597    0.7729 C   0  0  0  0  0  0  0  0  0  0  0  0
   -2.4541   -1.3842    0.7198 C   0  0  0  0  0  0  0  0  0  0  0  0
   -4.1208    1.1704    0.8994 C   0  0  0  0  0  0  0  0  0  0  0  0
   -4.8323    2.2305    0.3922 C   0  0  0  0  0  0  0  0  0  0  0  0
   -4.1268    3.2206   -0.2682 C   0  0  0  0  0  0  0  0  0  0  0  0
   -2.0361    2.0414    0.1192 C   0  0  0  0  0  0  0  0  0  0  0  0
   -2.7562    3.1102   -0.3920 C   0  0  0  0  0  0  0  0  0  0  0  0
   -3.3616   -2.2452    1.3111 C   0  0  0  0  0  0  0  0  0  0  0  0
   -3.7432   -3.4389    0.6895 C   0  0  0  0  0  0  0  0  0  0  0  0
   -1.9451   -1.7562   -0.5068 C   0  0  0  0  0  0  0  0  0  0  0  0
   -3.2332   -3.7938   -0.5207 C   0  0  0  0  0  0  0  0  0  0  0  0
   -2.3175   -2.9416   -1.1347 C   0  0  0  0  0  0  0  0  0  0  0  0
    1.9985    0.3985    1.5071 H   0  0  0  0  0  0  0  0  0  0  0  0
    2.6159   -1.6523    0.6969 H   0  0  0  0  0  0  0  0  0  0  0  0
    1.6934   -1.3862   -0.8499 H   0  0  0  0  0  0  0  0  0  0  0  0
    1.6818    2.4422   -0.0335 H   0  0  0  0  0  0  0  0  0  0  0  0
    5.3698    0.3267    0.1534 H   0  0  0  0  0  0  0  0  0  0  0  0
    4.0678   -0.1333    1.2648 H   0  0  0  0  0  0  0  0  0  0  0  0
    4.2969    0.7017   -2.2675 H   0  0  0  0  0  0  0  0  0  0  0  0
    3.0792   -0.5433   -2.7307 H   0  0  0  0  0  0  0  0  0  0  0  0
    3.7672    2.2978    1.0608 H   0  0  0  0  0  0  0  0  0  0  0  0
    4.1985    2.2323   -0.6886 H   0  0  0  0  0  0  0  0  0  0  0  0
    2.5230    2.1835   -2.2902 H   0  0  0  0  0  0  0  0  0  0  0  0
    1.2592    0.8483   -2.1111 H   0  0  0  0  0  0  0  0  0  0  0  0
    3.9842   -2.1180   -1.9613 H   0  0  0  0  0  0  0  0  0  0  0  0
    5.4098   -1.2185   -1.4161 H   0  0  0  0  0  0  0  0  0  0  0  0
    4.5765   -2.3683   -0.2744 H   0  0  0  0  0  0  0  0  0  0  0  0
   -2.5005    0.7081    3.1077 H   0  0  0  0  0  0  0  0  0  0  0  0
   -4.6981    0.4060    1.4141 H   0  0  0  0  0  0  0  0  0  0  0  0
   -5.9132    2.2954    0.5028 H   0  0  0  0  0  0  0  0  0  0  0  0
   -4.6888    4.0692   -0.6751 H   0  0  0  0  0  0  0  0  0  0  0  0
   -0.9482    2.0330   -0.0224 H   0  0  0  0  0  0  0  0  0  0  0  0
   -2.2150    3.8969   -0.9141 H   0  0  0  0  0  0  0  0  0  0  0  0
   -3.7882   -1.9953    2.2728 H   0  0  0  0  0  0  0  0  0  0  0  0
   -4.4561   -4.0807    1.1913 H   0  0  0  0  0  0  0  0  0  0  0  0
   -1.2319   -1.0691   -0.9663 H   0  0  0  0  0  0  0  0  0  0  0  0
   -3.5281   -4.7207   -1.0052 H   0  0  0  0  0  0  0  0  0  0  0  0
   -1.8898   -3.1805   -2.0881 H   0  0  0  0  0  0  0  0  0  0  0  0
  1  3  1  0
  2  3  1  0
  2  4  1  0
  5  7  1  0
  6  8  1  0
  4  7  1  0
  4  8  1  0
  1  9  1  6
  1  6  1  0
  1  5  1  0
  2 10  1  0
 10 11  1  0
 11 12  1  0
 11 13  2  0
 12 14  1  0
 12 15  1  0
 12 16  1  0
 17 18  2  0
 15 17  1  0
 18 19  1  0
 15 20  2  0
 19 21  2  0
 20 21  1  0
 16 22  2  0
 22 23  1  0
 16 24  1  0
 23 25  2  0
 24 26  2  0
 25 26  1  0
  2 27  1  0
  3 28  1  0
  3 29  1  0
  4 30  1  6
  5 31  1  0
  5 32  1  0
  6 33  1  0
  6 34  1  0
  7 35  1  0
  7 36  1  0
  8 37  1  0
  8 38  1  0
  9 39  1  0
  9 40  1  0
  9 41  1  0
 14 42  1  0
 17 43  1  0
 18 44  1  0
 19 45  1  0
 20 46  1  0
 21 47  1  0
 22 48  1  0
 23 49  1  0
 24 50  1  0
 25 51  1  0
 26 52  1  0
M  CHG  1   1   1
M  END

