46507144
     RDKit          3D

 66 68  0  0  1  0  0  0  0  0999 V2000
   -5.5457    2.1090    1.4432 C   0  0  0  0  0  0  0  0  0  0  0  0
    4.8750    0.1768    2.5743 C   0  0  0  0  0  0  0  0  0  0  0  0
   -0.4564   -1.4129   -2.8503 C   0  0  0  0  0  0  0  0  0  0  0  0
   -4.9934    1.1618    0.3811 C   0  0  2  0  0  0  0  0  0  0  0  0
    4.7171    0.6024    1.1141 C   0  0  2  0  0  0  0  0  0  0  0  0
   -0.1232   -0.9356   -1.4532 C   0  0  2  0  0  0  0  0  0  0  0  0
   -5.8224   -0.0707    0.4110 C   0  0  2  0  0  0  0  0  0  0  0  0
   -5.1836   -1.2847   -0.1653 C   0  0  1  0  0  0  0  0  0  0  0  0
    4.7485   -1.3204   -0.4227 C   0  0  2  0  0  0  0  0  0  0  0  0
   -0.2510    1.4855   -0.8118 C   0  0  2  0  0  0  0  0  0  0  0  0
    5.4687   -0.4644   -1.4406 C   0  0  2  0  0  0  0  0  0  0  0  0
   -3.7420   -1.3462    0.3208 C   0  0  2  0  0  0  0  0  0  0  0  0
    1.0299    1.3532   -0.0739 C   0  0  2  0  0  0  0  0  0  0  0  0
    3.8425   -0.3676    0.3623 C   0  0  2  0  0  0  0  0  0  0  0  0
   -0.9968    0.2040   -1.0430 C   0  0  2  0  0  0  0  0  0  0  0  0
    6.0203    0.7655   -0.7884 C   0  0  2  0  0  0  0  0  0  0  0  0
   -3.0909   -0.0494   -0.1131 C   0  0  1  0  0  0  0  0  0  0  0  0
    1.6669    0.0584   -0.3505 C   0  0  1  0  0  0  0  0  0  0  0  0
   -6.9044    2.3721    1.1993 O   0  0  0  0  0  0  0  0  0  0  0  0
    3.6008    0.0064    3.1519 O   0  0  0  0  0  0  0  0  0  0  0  0
   -1.8310   -1.6533   -2.8821 O   0  0  0  0  0  0  0  0  0  0  0  0
   -6.9931    0.1861   -0.3303 O   0  0  0  0  0  0  0  0  0  0  0  0
   -5.8765   -2.4049    0.3472 O   0  0  0  0  0  0  0  0  0  0  0  0
    5.6069   -2.0116    0.3986 O   0  0  0  0  0  0  0  0  0  0  0  0
    0.0390    2.1012   -2.0515 O   0  0  0  0  0  0  0  0  0  0  0  0
    4.4772   -0.0307   -2.3507 O   0  0  0  0  0  0  0  0  0  0  0  0
   -3.0860   -2.4649   -0.1247 O   0  0  0  0  0  0  0  0  0  0  0  0
    0.7110    1.4239    1.3042 O   0  0  0  0  0  0  0  0  0  0  0  0
    7.3702    0.9189   -1.1529 O   0  0  0  0  0  0  0  0  0  0  0  0
    5.9711    0.7582    0.5840 O   0  0  0  0  0  0  0  0  0  0  0  0
   -3.6573    0.9559    0.6935 O   0  0  0  0  0  0  0  0  0  0  0  0
    1.2203   -0.6918   -1.3937 O   0  0  0  0  0  0  0  0  0  0  0  0
    3.0483    0.2696   -0.5833 O   0  0  0  0  0  0  0  0  0  0  0  0
   -1.7285   -0.0825    0.1083 O   0  0  0  0  0  0  0  0  0  0  0  0
   -5.5017    1.5411    2.3996 H   0  0  0  0  0  0  0  0  0  0  0  0
   -4.9471    3.0193    1.5346 H   0  0  0  0  0  0  0  0  0  0  0  0
    5.4808   -0.7314    2.6812 H   0  0  0  0  0  0  0  0  0  0  0  0
    5.3558    0.9840    3.1614 H   0  0  0  0  0  0  0  0  0  0  0  0
    0.0227   -2.4312   -2.9459 H   0  0  0  0  0  0  0  0  0  0  0  0
   -0.1039   -0.7504   -3.6409 H   0  0  0  0  0  0  0  0  0  0  0  0
   -5.0599    1.6862   -0.5893 H   0  0  0  0  0  0  0  0  0  0  0  0
    4.2013    1.5748    1.1182 H   0  0  0  0  0  0  0  0  0  0  0  0
   -0.3408   -1.7860   -0.7758 H   0  0  0  0  0  0  0  0  0  0  0  0
   -6.1753   -0.2743    1.4525 H   0  0  0  0  0  0  0  0  0  0  0  0
   -5.2482   -1.3172   -1.2760 H   0  0  0  0  0  0  0  0  0  0  0  0
    4.1259   -2.0482   -0.9720 H   0  0  0  0  0  0  0  0  0  0  0  0
   -0.8908    2.2126   -0.2723 H   0  0  0  0  0  0  0  0  0  0  0  0
    6.1959   -1.0272   -2.0476 H   0  0  0  0  0  0  0  0  0  0  0  0
   -3.8109   -1.2907    1.4441 H   0  0  0  0  0  0  0  0  0  0  0  0
    1.6678    2.2419   -0.2706 H   0  0  0  0  0  0  0  0  0  0  0  0
    3.2463   -0.9209    1.1201 H   0  0  0  0  0  0  0  0  0  0  0  0
   -1.7356    0.3862   -1.8508 H   0  0  0  0  0  0  0  0  0  0  0  0
    5.5109    1.7058   -1.1271 H   0  0  0  0  0  0  0  0  0  0  0  0
   -3.3317    0.2022   -1.1816 H   0  0  0  0  0  0  0  0  0  0  0  0
    1.6262   -0.5863    0.5661 H   0  0  0  0  0  0  0  0  0  0  0  0
   -7.4909    1.9710    1.8921 H   0  0  0  0  0  0  0  0  0  0  0  0
    3.5427   -0.9264    3.4549 H   0  0  0  0  0  0  0  0  0  0  0  0
   -2.0663   -2.5858   -2.6968 H   0  0  0  0  0  0  0  0  0  0  0  0
   -7.5288   -0.6431   -0.3412 H   0  0  0  0  0  0  0  0  0  0  0  0
   -6.7120   -2.5612   -0.1588 H   0  0  0  0  0  0  0  0  0  0  0  0
    6.5199   -2.1068    0.0610 H   0  0  0  0  0  0  0  0  0  0  0  0
   -0.7060    1.8625   -2.6603 H   0  0  0  0  0  0  0  0  0  0  0  0
    4.3902    0.9342   -2.3780 H   0  0  0  0  0  0  0  0  0  0  0  0
   -2.4679   -2.7716    0.6067 H   0  0  0  0  0  0  0  0  0  0  0  0
    0.3820    2.3035    1.5614 H   0  0  0  0  0  0  0  0  0  0  0  0
    7.7179    1.8162   -0.9061 H   0  0  0  0  0  0  0  0  0  0  0  0
  4  1  1  0
  5  2  1  0
  6  3  1  0
  4  7  1  0
  7  8  1  0
  9 11  1  0
  8 12  1  0
 10 13  1  0
  5 14  1  0
  9 14  1  0
  6 15  1  0
 10 15  1  0
 11 16  1  0
 12 17  1  0
 13 18  1  0
  1 19  1  0
  2 20  1  0
  3 21  1  0
  7 22  1  0
  8 23  1  0
  9 24  1  0
 10 25  1  0
 11 26  1  0
 12 27  1  0
 13 28  1  0
 16 29  1  0
  5 30  1  0
 16 30  1  0
  4 31  1  0
 17 31  1  0
  6 32  1  0
 18 32  1  0
 14 33  1  0
 18 33  1  0
 15 34  1  0
 17 34  1  0
  1 35  1  0
  1 36  1  0
  2 37  1  0
  2 38  1  0
  3 39  1  0
  3 40  1  0
  4 41  1  6
  5 42  1  1
  6 43  1  1
  7 44  1  1
  8 45  1  6
  9 46  1  6
 10 47  1  1
 11 48  1  6
 12 49  1  1
 13 50  1  6
 14 51  1  1
 15 52  1  6
 16 53  1  6
 17 54  1  6
 18 55  1  1
 19 56  1  0
 20 57  1  0
 21 58  1  0
 22 59  1  0
 23 60  1  0
 24 61  1  0
 25 62  1  0
 26 63  1  0
 27 64  1  0
 28 65  1  0
 29 66  1  0
M  END

