46505705
     RDKit          3D

 44 46  0  0  0  0  0  0  0  0999 V2000
   -2.6602    1.4384   -3.3129 C   0  0  0  0  0  0  0  0  0  0  0  0
   -2.8156    1.9127   -1.8811 C   0  0  0  0  0  0  0  0  0  0  0  0
   -2.1285    0.9013   -0.9929 C   0  0  0  0  0  0  0  0  0  0  0  0
   -2.2182    1.2700    0.4643 C   0  0  0  0  0  0  0  0  0  0  0  0
   -1.5421    0.2798    1.2696 N   0  0  0  0  0  0  0  0  0  0  0  0
   -2.1902   -0.8461    1.6928 C   0  0  0  0  0  0  0  0  0  0  0  0
   -3.4440   -1.3042    1.4955 N   0  0  0  0  0  0  0  0  0  0  0  0
   -3.8224   -2.4694    2.0424 C   0  0  0  0  0  0  0  0  0  0  0  0
   -2.9228   -3.1458    2.7776 N   0  0  0  0  0  0  0  0  0  0  0  0
   -1.2742   -1.5431    2.4463 C   0  0  0  0  0  0  0  0  0  0  0  0
   -1.6770   -2.7588    3.0139 C   0  0  0  0  0  0  0  0  0  0  0  0
   -0.7272   -3.4549    3.7795 N   0  0  0  0  0  0  0  0  0  0  0  0
   -0.1350   -0.8655    2.4713 N   0  0  0  0  0  0  0  0  0  0  0  0
   -0.2885    0.2839    1.7355 C   0  0  0  0  0  0  0  0  0  0  0  0
    0.7460    1.3237    1.5242 C   0  0  0  0  0  0  0  0  0  0  0  0
    1.7117    0.9733    0.4671 C   0  0  0  0  0  0  0  0  0  0  0  0
    2.7535    0.0971    0.7049 C   0  0  0  0  0  0  0  0  0  0  0  0
    3.6761   -0.2152   -0.2931 C   0  0  0  0  0  0  0  0  0  0  0  0
    1.6271    1.5179   -0.7860 C   0  0  0  0  0  0  0  0  0  0  0  0
    2.5484    1.2095   -1.7920 C   0  0  0  0  0  0  0  0  0  0  0  0
    3.5669    0.3435   -1.5352 C   0  0  0  0  0  0  0  0  0  0  0  0
    4.4925    0.0269   -2.5281 O   0  0  0  0  0  0  0  0  0  0  0  0
    5.5386   -0.8652   -2.2576 C   0  0  0  0  0  0  0  0  0  0  0  0
   -3.1142    0.4240   -3.4146 H   0  0  0  0  0  0  0  0  0  0  0  0
   -1.5674    1.3126   -3.5150 H   0  0  0  0  0  0  0  0  0  0  0  0
   -3.1073    2.1610   -4.0329 H   0  0  0  0  0  0  0  0  0  0  0  0
   -3.8971    1.9926   -1.6761 H   0  0  0  0  0  0  0  0  0  0  0  0
   -2.3127    2.8976   -1.7845 H   0  0  0  0  0  0  0  0  0  0  0  0
   -1.0771    0.8273   -1.3022 H   0  0  0  0  0  0  0  0  0  0  0  0
   -2.6206   -0.1011   -1.1724 H   0  0  0  0  0  0  0  0  0  0  0  0
   -1.7621    2.2757    0.5875 H   0  0  0  0  0  0  0  0  0  0  0  0
   -3.2495    1.3532    0.8096 H   0  0  0  0  0  0  0  0  0  0  0  0
   -4.8446   -2.8647    1.8944 H   0  0  0  0  0  0  0  0  0  0  0  0
   -0.0118   -4.0681    3.3154 H   0  0  0  0  0  0  0  0  0  0  0  0
   -0.7104   -3.3810    4.8018 H   0  0  0  0  0  0  0  0  0  0  0  0
    0.2189    2.2805    1.3044 H   0  0  0  0  0  0  0  0  0  0  0  0
    1.2775    1.5387    2.5007 H   0  0  0  0  0  0  0  0  0  0  0  0
    2.8257   -0.3332    1.6849 H   0  0  0  0  0  0  0  0  0  0  0  0
    4.4835   -0.9041   -0.0834 H   0  0  0  0  0  0  0  0  0  0  0  0
    0.8449    2.2175   -1.0622 H   0  0  0  0  0  0  0  0  0  0  0  0
    2.4595    1.6507   -2.7674 H   0  0  0  0  0  0  0  0  0  0  0  0
    5.1110   -1.8042   -1.8064 H   0  0  0  0  0  0  0  0  0  0  0  0
    6.2533   -0.4267   -1.5594 H   0  0  0  0  0  0  0  0  0  0  0  0
    5.9857   -1.1577   -3.2282 H   0  0  0  0  0  0  0  0  0  0  0  0
  1  2  1  0
  2  3  1  0
  3  4  1  0
  4  5  1  0
  5  6  1  0
  5 14  1  0
  6  7  2  0
  6 10  1  0
  7  8  1  0
  8  9  2  0
  9 11  1  0
 10 11  2  0
 10 13  1  0
 11 12  1  0
 13 14  2  0
 14 15  1  0
 15 16  1  0
 16 17  2  0
 16 19  1  0
 17 18  1  0
 18 21  2  0
 19 20  2  0
 20 21  1  0
 21 22  1  0
 22 23  1  0
  1 24  1  0
  1 25  1  0
  1 26  1  0
  2 27  1  0
  2 28  1  0
  3 29  1  0
  3 30  1  0
  4 31  1  0
  4 32  1  0
  8 33  1  0
 12 34  1  0
 12 35  1  0
 15 36  1  0
 15 37  1  0
 17 38  1  0
 18 39  1  0
 19 40  1  0
 20 41  1  0
 23 42  1  0
 23 43  1  0
 23 44  1  0
M  END

