46508619
     RDKit          3D

 12 12  0  0  0  0  0  0  0  0999 V2000
    2.2513   -1.3056   -0.5328 O   0  0  0  0  0  0  0  0  0  0  0  0
    1.1079   -0.8550   -0.2618 C   0  0  0  0  0  0  0  0  0  0  0  0
    0.7756    0.1806    0.7280 C   0  0  0  0  0  0  0  0  0  0  0  0
   -0.3875    0.8979    0.0276 C   0  0  0  0  0  0  0  0  0  0  0  0
   -1.1188   -0.3183   -0.5349 C   0  0  0  0  0  0  0  0  0  0  0  0
   -0.0932   -1.2382   -0.8396 O   0  0  0  0  0  0  0  0  0  0  0  0
    1.5859    0.8632    0.9753 H   0  0  0  0  0  0  0  0  0  0  0  0
    0.3172   -0.3279    1.6015 H   0  0  0  0  0  0  0  0  0  0  0  0
   -0.9954    1.4777    0.7211 H   0  0  0  0  0  0  0  0  0  0  0  0
   -0.0020    1.4537   -0.8369 H   0  0  0  0  0  0  0  0  0  0  0  0
   -1.7546   -0.0717   -1.3828 H   0  0  0  0  0  0  0  0  0  0  0  0
   -1.6864   -0.7563    0.3352 H   0  0  0  0  0  0  0  0  0  0  0  0
  1  2  2  0
  2  3  1  0
  3  4  1  0
  4  5  1  0
  5  6  1  0
  2  6  1  0
  3  7  1  0
  3  8  1  0
  4  9  1  0
  4 10  1  0
  5 11  1  0
  5 12  1  0
M  END

