46508292
     RDKit          3D

 41 41  0  0  1  0  0  0  0  0999 V2000
    0.1260   -0.8147    0.0435 C   0  0  2  0  0  0  0  0  0  0  0  0
   -1.1348   -0.0138    0.0504 C   0  0  1  0  0  0  0  0  0  0  0  0
    0.1532   -1.9188    0.8383 O   0  0  0  0  0  0  0  0  0  0  0  0
   -2.1850   -0.4423    1.0116 C   0  0  2  0  0  0  0  0  0  0  0  0
   -1.0134   -2.6016    0.9797 C   0  0  1  0  0  0  0  0  0  0  0  0
   -2.0125   -1.7502    1.6807 C   0  0  2  0  0  0  0  0  0  0  0  0
   -0.8667    1.3824    0.3197 N   0  0  0  0  0  0  0  0  0  0  0  0
   -3.4327   -0.4666    0.3433 O   0  0  0  0  0  0  0  0  0  0  0  0
   -3.2459   -2.3954    1.8310 O   0  0  0  0  0  0  0  0  0  0  0  0
   -1.5374   -3.2146   -0.2933 C   0  0  0  0  0  0  0  0  0  0  0  0
   -0.6602   -4.1214   -0.8523 O   0  0  0  0  0  0  0  0  0  0  0  0
   -1.1409    2.3574   -0.6668 C   0  0  0  0  0  0  0  0  0  0  0  0
   -1.6185    1.9656   -1.7662 O   0  0  0  0  0  0  0  0  0  0  0  0
   -0.8859    3.8098   -0.4478 C   0  0  0  0  0  0  0  0  0  0  0  0
    1.1845    0.0478    0.3513 O   0  0  0  0  0  0  0  0  0  0  0  0
    4.2191    1.2482   -1.2460 C   0  0  0  0  0  0  0  0  0  0  0  0
    3.1881    1.1250   -0.1756 C   0  0  1  0  0  0  0  0  0  0  0  0
    4.5178    2.3376   -1.7761 O   0  0  0  0  0  0  0  0  0  0  0  0
    2.6243    2.4145    0.1263 N   0  0  0  0  0  0  0  0  0  0  0  0
    2.1081    0.1614   -0.6632 C   0  0  0  0  0  0  0  0  0  0  0  0
    4.8569    0.0799   -1.6484 O   0  0  0  0  0  0  0  0  0  0  0  0
    0.3532   -1.1818   -1.0020 H   0  0  0  0  0  0  0  0  0  0  0  0
   -1.5563   -0.0537   -0.9938 H   0  0  0  0  0  0  0  0  0  0  0  0
   -2.3547    0.3181    1.8329 H   0  0  0  0  0  0  0  0  0  0  0  0
   -0.7975   -3.4753    1.6654 H   0  0  0  0  0  0  0  0  0  0  0  0
   -1.6354   -1.6136    2.7343 H   0  0  0  0  0  0  0  0  0  0  0  0
   -0.4705    1.7049    1.2342 H   0  0  0  0  0  0  0  0  0  0  0  0
   -4.1752   -0.2444    0.9559 H   0  0  0  0  0  0  0  0  0  0  0  0
   -3.7558   -2.4248    0.9818 H   0  0  0  0  0  0  0  0  0  0  0  0
   -1.7662   -2.4372   -1.0513 H   0  0  0  0  0  0  0  0  0  0  0  0
   -2.4922   -3.7533   -0.1203 H   0  0  0  0  0  0  0  0  0  0  0  0
   -0.2512   -3.7671   -1.6792 H   0  0  0  0  0  0  0  0  0  0  0  0
   -0.6038    4.2677   -1.4248 H   0  0  0  0  0  0  0  0  0  0  0  0
   -1.8191    4.2632   -0.0954 H   0  0  0  0  0  0  0  0  0  0  0  0
   -0.1104    3.9833    0.3188 H   0  0  0  0  0  0  0  0  0  0  0  0
    3.6589    0.7188    0.7391 H   0  0  0  0  0  0  0  0  0  0  0  0
    3.3562    3.0181    0.5415 H   0  0  0  0  0  0  0  0  0  0  0  0
    1.7671    2.3702    0.6912 H   0  0  0  0  0  0  0  0  0  0  0  0
    1.6523    0.5287   -1.5925 H   0  0  0  0  0  0  0  0  0  0  0  0
    2.5462   -0.8443   -0.8266 H   0  0  0  0  0  0  0  0  0  0  0  0
    5.2104   -0.5676   -0.9495 H   0  0  0  0  0  0  0  0  0  0  0  0
  1  2  1  0
  1  3  1  0
  2  4  1  0
  3  5  1  0
  4  6  1  0
  5  6  1  0
  2  7  1  0
  4  8  1  0
  6  9  1  0
  5 10  1  0
 10 11  1  0
 12 13  2  0
 12 14  1  0
  7 12  1  0
  1 15  1  0
 16 17  1  0
 16 18  2  0
 17 19  1  0
 17 20  1  0
 15 20  1  0
 16 21  1  0
  1 22  1  6
  2 23  1  6
  4 24  1  1
  5 25  1  1
  6 26  1  1
  7 27  1  0
  8 28  1  0
  9 29  1  0
 10 30  1  0
 10 31  1  0
 11 32  1  0
 14 33  1  0
 14 34  1  0
 14 35  1  0
 17 36  1  1
 19 37  1  0
 19 38  1  0
 20 39  1  0
 20 40  1  0
 21 41  1  0
M  END

