46505037
     RDKit          3D

 69 73  0  0  0  0  0  0  0  0999 V2000
    3.6948    2.1654   -0.9900 O   0  0  0  0  0  0  0  0  0  0  0  0
    6.1681    2.4367   -1.6968 O   0  0  0  0  0  0  0  0  0  0  0  0
   -0.9532    0.6168    0.3500 N   0  0  0  0  0  0  0  0  0  0  0  0
    3.3166    0.2946    0.2530 N   0  0  0  0  0  0  0  0  0  0  0  0
    5.4140    0.6936   -0.3939 N   0  0  0  0  0  0  0  0  0  0  0  0
   -2.8250   -0.9465    2.4667 N   0  0  0  0  0  0  0  0  0  0  0  0
    1.8945    0.3634    0.4985 C   0  0  0  0  0  0  0  0  0  0  0  0
    1.2873    1.6762    0.0407 C   0  0  0  0  0  0  0  0  0  0  0  0
    1.0833   -0.7052   -0.1776 C   0  0  0  0  0  0  0  0  0  0  0  0
   -0.1128    1.7669    0.4962 C   0  0  0  0  0  0  0  0  0  0  0  0
   -0.2817   -0.6466    0.5184 C   0  0  0  0  0  0  0  0  0  0  0  0
   -1.7747    0.6686   -0.8238 C   0  0  0  0  0  0  0  0  0  0  0  0
   -2.8580   -0.3406   -0.9321 C   0  0  0  0  0  0  0  0  0  0  0  0
    4.0938   -0.6873    0.7187 C   0  0  0  0  0  0  0  0  0  0  0  0
   -3.8957   -0.2680    0.1288 C   0  0  0  0  0  0  0  0  0  0  0  0
    4.1092    1.1160   -0.4109 C   0  0  0  0  0  0  0  0  0  0  0  0
    5.4022   -0.4397    0.3149 C   0  0  0  0  0  0  0  0  0  0  0  0
   -4.9162   -1.3265   -0.1200 C   0  0  0  0  0  0  0  0  0  0  0  0
   -4.5127    1.0615    0.2684 C   0  0  0  0  0  0  0  0  0  0  0  0
    3.8285   -1.8245    1.4767 C   0  0  0  0  0  0  0  0  0  0  0  0
    6.3822   -1.3245    0.6748 C   0  0  0  0  0  0  0  0  0  0  0  0
    6.4827    1.3840   -1.0246 C   0  0  0  0  0  0  0  0  0  0  0  0
   -3.2818   -0.6472    1.4280 C   0  0  0  0  0  0  0  0  0  0  0  0
    4.8137   -2.7149    1.8406 C   0  0  0  0  0  0  0  0  0  0  0  0
    6.0945   -2.4641    1.4379 C   0  0  0  0  0  0  0  0  0  0  0  0
   -5.9364   -1.5528    0.8065 C   0  0  0  0  0  0  0  0  0  0  0  0
   -4.2699    1.8492    1.3646 C   0  0  0  0  0  0  0  0  0  0  0  0
   -4.9299   -2.1217   -1.2387 C   0  0  0  0  0  0  0  0  0  0  0  0
   -5.3558    1.5363   -0.7030 C   0  0  0  0  0  0  0  0  0  0  0  0
    7.9016    1.0499   -1.0037 C   0  0  0  0  0  0  0  0  0  0  0  0
   -6.9036   -2.5145    0.6168 C   0  0  0  0  0  0  0  0  0  0  0  0
   -4.8640    3.1100    1.4994 C   0  0  0  0  0  0  0  0  0  0  0  0
   -5.8965   -3.0903   -1.4394 C   0  0  0  0  0  0  0  0  0  0  0  0
   -5.9572    2.7987   -0.5794 C   0  0  0  0  0  0  0  0  0  0  0  0
    8.2089    0.0806   -2.1245 C   0  0  0  0  0  0  0  0  0  0  0  0
   -6.8945   -3.3028   -0.5213 C   0  0  0  0  0  0  0  0  0  0  0  0
   -5.7029    3.5723    0.5245 C   0  0  0  0  0  0  0  0  0  0  0  0
    1.7190    0.2578    1.5957 H   0  0  0  0  0  0  0  0  0  0  0  0
    1.8817    2.4869    0.5099 H   0  0  0  0  0  0  0  0  0  0  0  0
    1.4030    1.7220   -1.0630 H   0  0  0  0  0  0  0  0  0  0  0  0
    1.4660   -1.7185   -0.1030 H   0  0  0  0  0  0  0  0  0  0  0  0
    0.8825   -0.3656   -1.2172 H   0  0  0  0  0  0  0  0  0  0  0  0
   -0.0992    2.1380    1.5626 H   0  0  0  0  0  0  0  0  0  0  0  0
   -0.5979    2.6067   -0.0859 H   0  0  0  0  0  0  0  0  0  0  0  0
   -0.0450   -0.7242    1.6189 H   0  0  0  0  0  0  0  0  0  0  0  0
   -0.8561   -1.4750    0.1350 H   0  0  0  0  0  0  0  0  0  0  0  0
   -1.0936    0.6519   -1.7087 H   0  0  0  0  0  0  0  0  0  0  0  0
   -2.2190    1.7076   -0.8589 H   0  0  0  0  0  0  0  0  0  0  0  0
   -2.5123   -1.3928   -0.9881 H   0  0  0  0  0  0  0  0  0  0  0  0
   -3.3305   -0.1723   -1.9504 H   0  0  0  0  0  0  0  0  0  0  0  0
    2.8335   -2.0637    1.8206 H   0  0  0  0  0  0  0  0  0  0  0  0
    7.3889   -1.1475    0.3558 H   0  0  0  0  0  0  0  0  0  0  0  0
    4.5967   -3.6101    2.4383 H   0  0  0  0  0  0  0  0  0  0  0  0
    6.9152   -3.1244    1.6909 H   0  0  0  0  0  0  0  0  0  0  0  0
   -5.9402   -0.9341    1.6952 H   0  0  0  0  0  0  0  0  0  0  0  0
   -3.6134    1.5429    2.1776 H   0  0  0  0  0  0  0  0  0  0  0  0
   -4.1767   -2.0046   -1.9877 H   0  0  0  0  0  0  0  0  0  0  0  0
   -5.6095    0.9894   -1.6092 H   0  0  0  0  0  0  0  0  0  0  0  0
    8.4815    2.0265   -1.2526 H   0  0  0  0  0  0  0  0  0  0  0  0
    8.3381    0.7694   -0.0403 H   0  0  0  0  0  0  0  0  0  0  0  0
   -7.6959   -2.6998    1.3253 H   0  0  0  0  0  0  0  0  0  0  0  0
   -4.6885    3.7492    2.3581 H   0  0  0  0  0  0  0  0  0  0  0  0
   -5.8720   -3.6903   -2.3297 H   0  0  0  0  0  0  0  0  0  0  0  0
   -6.6169    3.1527   -1.3540 H   0  0  0  0  0  0  0  0  0  0  0  0
    9.0511    0.4615   -2.7517 H   0  0  0  0  0  0  0  0  0  0  0  0
    7.3343   -0.0413   -2.8056 H   0  0  0  0  0  0  0  0  0  0  0  0
    8.4644   -0.9140   -1.7499 H   0  0  0  0  0  0  0  0  0  0  0  0
   -7.6542   -4.0699   -0.6888 H   0  0  0  0  0  0  0  0  0  0  0  0
   -6.1884    4.5628    0.5972 H   0  0  0  0  0  0  0  0  0  0  0  0
  1 16  2  0
  2 22  2  0
  3 10  1  0
  3 11  1  0
  3 12  1  0
  4  7  1  0
  4 14  1  0
  4 16  1  0
  5 16  1  0
  5 17  1  0
  5 22  1  0
  6 23  3  0
  7  8  1  0
  7  9  1  0
  8 10  1  0
  9 11  1  0
 12 13  1  0
 13 15  1  0
 14 17  2  0
 14 20  1  0
 15 18  1  0
 15 19  1  0
 15 23  1  0
 17 21  1  0
 18 26  2  0
 18 28  1  0
 19 27  2  0
 19 29  1  0
 20 24  2  0
 21 25  2  0
 22 30  1  0
 24 25  1  0
 26 31  1  0
 27 32  1  0
 28 33  2  0
 29 34  2  0
 30 35  1  0
 31 36  2  0
 32 37  2  0
 33 36  1  0
 34 37  1  0
  7 38  1  0
  8 39  1  0
  8 40  1  0
  9 41  1  0
  9 42  1  0
 10 43  1  0
 10 44  1  0
 11 45  1  0
 11 46  1  0
 12 47  1  0
 12 48  1  0
 13 49  1  0
 13 50  1  0
 20 51  1  0
 21 52  1  0
 24 53  1  0
 25 54  1  0
 26 55  1  0
 27 56  1  0
 28 57  1  0
 29 58  1  0
 30 59  1  0
 30 60  1  0
 31 61  1  0
 32 62  1  0
 33 63  1  0
 34 64  1  0
 35 65  1  0
 35 66  1  0
 35 67  1  0
 36 68  1  0
 37 69  1  0
M  END

