46505094
     RDKit          3D

  4  3  0  0  0  0  0  0  0  0999 V2000
   -0.0436    0.0098    0.0033 C   0  0  0  0  0  0  0  0  0  0  0  0
    1.1557   -0.1878   -0.0869 O   0  0  0  0  0  0  0  0  0  0  0  0
   -0.7004   -0.8496    0.0404 H   0  0  0  0  0  0  0  0  0  0  0  0
   -0.4117    1.0276    0.0432 H   0  0  0  0  0  0  0  0  0  0  0  0
  1  2  2  0
  1  3  1  0
  1  4  1  0
M  END

