46508627
     RDKit          3D

 18 19  0  0  0  0  0  0  0  0999 V2000
    3.6881    0.3568   -0.1317 C   0  0  0  0  0  0  0  0  0  0  0  0
    2.2075    0.2121   -0.0657 C   0  0  0  0  0  0  0  0  0  0  0  0
    1.5530   -0.9474    0.1189 N   0  0  0  0  0  0  0  0  0  0  0  0
    0.2473   -0.6625    0.1184 C   0  0  0  0  0  0  0  0  0  0  0  0
    0.0990    0.6924   -0.0693 C   0  0  0  0  0  0  0  0  0  0  0  0
    1.3248    1.1818   -0.1763 O   0  0  0  0  0  0  0  0  0  0  0  0
   -1.1357    1.1864   -0.1016 N   0  0  0  0  0  0  0  0  0  0  0  0
   -2.2179    0.3794    0.0461 C   0  0  0  0  0  0  0  0  0  0  0  0
   -3.5341    0.9531    0.0050 N   0  0  0  0  0  0  0  0  0  0  0  0
   -2.0615   -0.9408    0.2287 N   0  0  0  0  0  0  0  0  0  0  0  0
   -0.8428   -1.4883    0.2690 C   0  0  0  0  0  0  0  0  0  0  0  0
   -0.6933   -2.7473    0.4431 O   0  0  0  0  0  0  0  0  0  0  0  0
    4.0265    1.3344    0.2889 H   0  0  0  0  0  0  0  0  0  0  0  0
    4.1614   -0.4215    0.5026 H   0  0  0  0  0  0  0  0  0  0  0  0
    4.0773    0.1998   -1.1659 H   0  0  0  0  0  0  0  0  0  0  0  0
   -4.3294    0.3898    0.3783 H   0  0  0  0  0  0  0  0  0  0  0  0
   -3.6818    1.8907   -0.3816 H   0  0  0  0  0  0  0  0  0  0  0  0
   -2.8885   -1.5689    0.3432 H   0  0  0  0  0  0  0  0  0  0  0  0
  1  2  1  0
  2  3  2  0
  3  4  1  0
  4  5  2  0
  5  6  1  0
  2  6  1  0
  5  7  1  0
  7  8  2  0
  8  9  1  0
  8 10  1  0
 10 11  1  0
  4 11  1  0
 11 12  2  0
  1 13  1  0
  1 14  1  0
  1 15  1  0
  9 16  1  0
  9 17  1  0
 10 18  1  0
M  END

