46507725
     RDKit          3D

 39 39  0  0  1  0  0  0  0  0999 V2000
    5.4949   -0.7487    0.0357 C   0  0  0  0  0  0  0  0  0  0  0  0
    3.9740   -0.7226    0.0762 C   0  0  0  0  0  0  0  0  0  0  0  0
    3.5255    0.6965   -0.0579 C   0  0  0  0  0  0  0  0  0  0  0  0
    2.0192    0.8291   -0.0250 C   0  0  0  0  0  0  0  0  0  0  0  0
    1.3602    0.0638   -1.1402 C   0  0  0  0  0  0  0  0  0  0  0  0
   -2.8644    2.4396   -0.2360 C   0  0  0  0  0  0  0  0  0  0  0  0
   -2.4371    0.9957   -0.2616 C   0  0  2  0  0  0  0  0  0  0  0  0
   -3.5135    0.0713    0.2678 C   0  0  2  0  0  0  0  0  0  0  0  0
   -2.9504   -1.3133    0.2484 C   0  0  1  0  0  0  0  0  0  0  0  0
   -1.6170   -1.4330   -0.4076 C   0  0  1  0  0  0  0  0  0  0  0  0
   -0.6537   -0.3354   -0.0383 C   0  0  1  0  0  0  0  0  0  0  0  0
   -3.1903    2.8543    1.0481 O   0  0  0  0  0  0  0  0  0  0  0  0
   -4.6990    0.1900   -0.4464 O   0  0  0  0  0  0  0  0  0  0  0  0
   -2.9318   -1.8571    1.5360 O   0  0  0  0  0  0  0  0  0  0  0  0
   -1.0704   -2.6701   -0.0335 O   0  0  0  0  0  0  0  0  0  0  0  0
   -0.0047    0.1486   -1.1668 O   0  0  0  0  0  0  0  0  0  0  0  0
   -1.3171    0.7637    0.5364 O   0  0  0  0  0  0  0  0  0  0  0  0
    5.8815   -0.6464    1.0649 H   0  0  0  0  0  0  0  0  0  0  0  0
    5.8515    0.1225   -0.5682 H   0  0  0  0  0  0  0  0  0  0  0  0
    5.8487   -1.6833   -0.4336 H   0  0  0  0  0  0  0  0  0  0  0  0
    3.6250   -1.2978   -0.8208 H   0  0  0  0  0  0  0  0  0  0  0  0
    3.6341   -1.1931    1.0012 H   0  0  0  0  0  0  0  0  0  0  0  0
    3.9227    1.2841    0.7996 H   0  0  0  0  0  0  0  0  0  0  0  0
    3.8646    1.1579   -0.9988 H   0  0  0  0  0  0  0  0  0  0  0  0
    1.8010    1.9133   -0.0670 H   0  0  0  0  0  0  0  0  0  0  0  0
    1.6655    0.4662    0.9579 H   0  0  0  0  0  0  0  0  0  0  0  0
    1.6305   -1.0216   -1.0618 H   0  0  0  0  0  0  0  0  0  0  0  0
    1.7468    0.3878   -2.1272 H   0  0  0  0  0  0  0  0  0  0  0  0
   -3.7478    2.5279   -0.9004 H   0  0  0  0  0  0  0  0  0  0  0  0
   -2.0400    3.0330   -0.6677 H   0  0  0  0  0  0  0  0  0  0  0  0
   -2.2143    0.7368   -1.3132 H   0  0  0  0  0  0  0  0  0  0  0  0
   -3.7195    0.3648    1.3336 H   0  0  0  0  0  0  0  0  0  0  0  0
   -3.6750   -1.9507   -0.3309 H   0  0  0  0  0  0  0  0  0  0  0  0
   -1.7221   -1.4787   -1.5275 H   0  0  0  0  0  0  0  0  0  0  0  0
    0.0553   -0.7213    0.7019 H   0  0  0  0  0  0  0  0  0  0  0  0
   -2.5237    3.5182    1.3264 H   0  0  0  0  0  0  0  0  0  0  0  0
   -5.4371   -0.0626    0.1766 H   0  0  0  0  0  0  0  0  0  0  0  0
   -2.9211   -2.8550    1.4369 H   0  0  0  0  0  0  0  0  0  0  0  0
   -0.6510   -2.5746    0.8586 H   0  0  0  0  0  0  0  0  0  0  0  0
  1  2  1  0
  2  3  1  0
  3  4  1  0
  4  5  1  0
  7  6  1  0
  7  8  1  0
  8  9  1  0
  9 10  1  0
 10 11  1  0
  6 12  1  0
  8 13  1  0
  9 14  1  0
 10 15  1  0
  5 16  1  0
 11 16  1  0
  7 17  1  0
 11 17  1  0
  1 18  1  0
  1 19  1  0
  1 20  1  0
  2 21  1  0
  2 22  1  0
  3 23  1  0
  3 24  1  0
  4 25  1  0
  4 26  1  0
  5 27  1  0
  5 28  1  0
  6 29  1  0
  6 30  1  0
  7 31  1  6
  8 32  1  1
  9 33  1  6
 10 34  1  6
 11 35  1  1
 12 36  1  0
 13 37  1  0
 14 38  1  0
 15 39  1  0
M  END

