46507351
     RDKit          3D

 45 47  0  0  0  0  0  0  0  0999 V2000
   -0.6120    0.3680   -0.1772 N   0  0  0  0  0  0  0  0  0  0  0  0
    3.7278   -0.7970    0.0520 N   0  0  0  0  0  0  0  0  0  0  0  0
    0.8275    0.4853   -0.0966 C   0  0  0  0  0  0  0  0  0  0  0  0
   -1.0746   -0.9779   -0.3726 C   0  0  0  0  0  0  0  0  0  0  0  0
   -1.4270    1.5450   -0.0693 C   0  0  0  0  0  0  0  0  0  0  0  0
   -3.1712   -0.7891    1.1449 C   0  0  0  0  0  0  0  0  0  0  0  0
   -3.7259    0.4886    0.6204 C   0  0  0  0  0  0  0  0  0  0  0  0
   -2.2379   -1.4640    0.2231 C   0  0  0  0  0  0  0  0  0  0  0  0
   -2.7599    1.5643    0.3052 C   0  0  0  0  0  0  0  0  0  0  0  0
    1.4035   -0.4742    0.9262 C   0  0  0  0  0  0  0  0  0  0  0  0
    2.8830   -0.4632    1.1216 C   0  0  0  0  0  0  0  0  0  0  0  0
   -0.2580   -1.6928   -1.2043 C   0  0  0  0  0  0  0  0  0  0  0  0
   -0.6780    2.6492   -0.3826 C   0  0  0  0  0  0  0  0  0  0  0  0
   -2.5708   -2.7709   -0.0658 C   0  0  0  0  0  0  0  0  0  0  0  0
   -3.3442    2.8278    0.3587 C   0  0  0  0  0  0  0  0  0  0  0  0
   -0.5948   -2.9856   -1.4846 C   0  0  0  0  0  0  0  0  0  0  0  0
   -1.3239    3.8755   -0.3085 C   0  0  0  0  0  0  0  0  0  0  0  0
   -1.7510   -3.5029   -0.9073 C   0  0  0  0  0  0  0  0  0  0  0  0
   -2.6463    3.9681    0.0594 C   0  0  0  0  0  0  0  0  0  0  0  0
    3.8581    0.1154   -1.0283 C   0  0  0  0  0  0  0  0  0  0  0  0
    5.0458   -1.1527    0.5316 C   0  0  0  0  0  0  0  0  0  0  0  0
    1.3430    0.6052   -1.0128 H   0  0  0  0  0  0  0  0  0  0  0  0
    0.9815    1.4582    0.4804 H   0  0  0  0  0  0  0  0  0  0  0  0
   -2.6986   -0.5695    2.1310 H   0  0  0  0  0  0  0  0  0  0  0  0
   -4.0293   -1.4628    1.3396 H   0  0  0  0  0  0  0  0  0  0  0  0
   -4.5226    0.9056    1.2779 H   0  0  0  0  0  0  0  0  0  0  0  0
   -4.2985    0.2131   -0.3253 H   0  0  0  0  0  0  0  0  0  0  0  0
    0.9846   -0.2202    1.9574 H   0  0  0  0  0  0  0  0  0  0  0  0
    1.1605   -1.5439    0.6980 H   0  0  0  0  0  0  0  0  0  0  0  0
    3.1562   -1.0517    2.0449 H   0  0  0  0  0  0  0  0  0  0  0  0
    3.1420    0.5968    1.4375 H   0  0  0  0  0  0  0  0  0  0  0  0
    0.6142   -1.1621   -1.5748 H   0  0  0  0  0  0  0  0  0  0  0  0
    0.3557    2.5702   -0.7016 H   0  0  0  0  0  0  0  0  0  0  0  0
   -3.4560   -3.2185    0.3561 H   0  0  0  0  0  0  0  0  0  0  0  0
   -4.3919    2.8822    0.6504 H   0  0  0  0  0  0  0  0  0  0  0  0
    0.0458   -3.5480   -2.1387 H   0  0  0  0  0  0  0  0  0  0  0  0
   -0.7776    4.7543   -0.5414 H   0  0  0  0  0  0  0  0  0  0  0  0
   -2.0311   -4.5293   -1.1220 H   0  0  0  0  0  0  0  0  0  0  0  0
   -3.1621    4.9385    0.1201 H   0  0  0  0  0  0  0  0  0  0  0  0
    3.2889   -0.1223   -1.9475 H   0  0  0  0  0  0  0  0  0  0  0  0
    3.5741    1.1281   -0.6776 H   0  0  0  0  0  0  0  0  0  0  0  0
    4.9507    0.1586   -1.3292 H   0  0  0  0  0  0  0  0  0  0  0  0
    5.2127   -0.5276    1.4534 H   0  0  0  0  0  0  0  0  0  0  0  0
    5.1310   -2.2128    0.8269 H   0  0  0  0  0  0  0  0  0  0  0  0
    5.8569   -0.8591   -0.1632 H   0  0  0  0  0  0  0  0  0  0  0  0
  1  3  1  0
  1  4  1  0
  1  5  1  0
  2 11  1  0
  2 20  1  0
  2 21  1  0
  3 10  1  0
  4  8  2  0
  4 12  1  0
  5  9  2  0
  5 13  1  0
  6  7  1  0
  6  8  1  0
  7  9  1  0
  8 14  1  0
  9 15  1  0
 10 11  1  0
 12 16  2  0
 13 17  2  0
 14 18  2  0
 15 19  2  0
 16 18  1  0
 17 19  1  0
  3 22  1  0
  3 23  1  0
  6 24  1  0
  6 25  1  0
  7 26  1  0
  7 27  1  0
 10 28  1  0
 10 29  1  0
 11 30  1  0
 11 31  1  0
 12 32  1  0
 13 33  1  0
 14 34  1  0
 15 35  1  0
 16 36  1  0
 17 37  1  0
 18 38  1  0
 19 39  1  0
 20 40  1  0
 20 41  1  0
 20 42  1  0
 21 43  1  0
 21 44  1  0
 21 45  1  0
M  END

