46505345
     RDKit          3D

 28 30  0  0  1  0  0  0  0  0999 V2000
   -4.4616    0.8453   -1.2038 N   0  0  0  0  0  0  0  0  0  0  0  0
   -3.5386    0.0722   -0.4474 C   0  0  0  0  0  0  0  0  0  0  0  0
   -3.8797   -1.0451    0.2195 N   0  0  0  0  0  0  0  0  0  0  0  0
   -3.0134   -1.7796    0.9354 C   0  0  0  0  0  0  0  0  0  0  0  0
   -1.7313   -1.3792    0.9916 N   0  0  0  0  0  0  0  0  0  0  0  0
   -1.3073   -0.2869    0.3627 C   0  0  0  0  0  0  0  0  0  0  0  0
   -2.2082    0.4616   -0.3715 C   0  0  0  0  0  0  0  0  0  0  0  0
   -1.5457    1.4968   -0.9012 N   0  0  0  0  0  0  0  0  0  0  0  0
   -0.2704    1.3815   -0.4989 C   0  0  0  0  0  0  0  0  0  0  0  0
   -0.0869    0.3095    0.2710 N   0  0  0  0  0  0  0  0  0  0  0  0
    1.1318   -0.1744    0.9076 C   0  0  2  0  0  0  0  0  0  0  0  0
    2.0466    0.9137    1.2808 C   0  0  0  0  0  0  0  0  0  0  0  0
    3.0574    1.0132    0.4536 C   0  0  0  0  0  0  0  0  0  0  0  0
    2.9344   -0.0228   -0.5968 C   0  0  2  0  0  0  0  0  0  0  0  0
    2.5204    0.4976   -1.8218 O   0  0  0  0  0  0  0  0  0  0  0  0
    1.9566   -1.0195   -0.0386 C   0  0  1  0  0  0  0  0  0  0  0  0
    2.6758   -1.9333    0.7314 O   0  0  0  0  0  0  0  0  0  0  0  0
   -4.4756    1.8818   -1.1433 H   0  0  0  0  0  0  0  0  0  0  0  0
   -5.1473    0.4010   -1.8373 H   0  0  0  0  0  0  0  0  0  0  0  0
   -3.3430   -2.6825    1.4606 H   0  0  0  0  0  0  0  0  0  0  0  0
    0.5332    2.0766   -0.7632 H   0  0  0  0  0  0  0  0  0  0  0  0
    0.8563   -0.7722    1.8001 H   0  0  0  0  0  0  0  0  0  0  0  0
    1.9220    1.5862    2.1525 H   0  0  0  0  0  0  0  0  0  0  0  0
    3.8910    1.7633    0.5231 H   0  0  0  0  0  0  0  0  0  0  0  0
    3.9476   -0.4767   -0.7300 H   0  0  0  0  0  0  0  0  0  0  0  0
    3.2533    1.0964   -2.1317 H   0  0  0  0  0  0  0  0  0  0  0  0
    1.3621   -1.4817   -0.8302 H   0  0  0  0  0  0  0  0  0  0  0  0
    2.9202   -2.7426    0.2411 H   0  0  0  0  0  0  0  0  0  0  0  0
  1  2  1  0
  2  3  2  0
  3  4  1  0
  4  5  2  0
  5  6  1  0
  6  7  2  0
  2  7  1  0
  7  8  1  0
  8  9  2  0
  9 10  1  0
  6 10  1  0
 11 10  1  0
 11 12  1  0
 12 13  2  0
 13 14  1  0
 14 15  1  0
 14 16  1  0
 11 16  1  0
 16 17  1  0
  1 18  1  0
  1 19  1  0
  4 20  1  0
  9 21  1  0
 11 22  1  1
 12 23  1  0
 13 24  1  0
 14 25  1  6
 15 26  1  0
 16 27  1  6
 17 28  1  0
M  END

