46505992
     RDKit          3D

 12 11  0  0  1  0  0  0  0  0999 V2000
    0.4351   -0.8125    1.4273 N   0  0  0  0  0  0  0  0  0  0  0  0
    0.0118    0.1310    0.4204 C   0  0  1  0  0  0  0  0  0  0  0  0
    1.0434    0.1135   -0.6345 C   0  0  0  0  0  0  0  0  0  0  0  0
    1.8828    0.1012   -1.5071 C   0  0  0  0  0  0  0  0  0  0  0  0
   -1.2640   -0.2161   -0.2042 C   0  0  0  0  0  0  0  0  0  0  0  0
   -1.8011    0.5949   -1.1902 O   0  0  0  0  0  0  0  0  0  0  0  0
   -1.8826   -1.2423    0.1410 O   0  0  0  0  0  0  0  0  0  0  0  0
   -0.1384   -0.7049    2.3078 H   0  0  0  0  0  0  0  0  0  0  0  0
    1.4582   -0.6018    1.6121 H   0  0  0  0  0  0  0  0  0  0  0  0
   -0.0404    1.1246    0.9102 H   0  0  0  0  0  0  0  0  0  0  0  0
    2.6223    0.0719   -2.2796 H   0  0  0  0  0  0  0  0  0  0  0  0
   -2.3271    1.4406   -1.0032 H   0  0  0  0  0  0  0  0  0  0  0  0
  2  1  1  0
  2  3  1  0
  3  4  3  0
  2  5  1  0
  5  6  1  0
  5  7  2  0
  1  8  1  0
  1  9  1  0
  2 10  1  1
  4 11  1  0
  6 12  1  0
M  END

