46506002
     RDKit          3D

 27 28  0  0  0  0  0  0  0  0999 V2000
   -2.2705    0.6418   -0.7532 O   0  0  0  0  0  0  0  0  0  0  0  0
    3.8642    2.2897    1.1727 O   0  0  0  0  0  0  0  0  0  0  0  0
   -3.4888   -1.9259   -0.3266 O   0  0  0  0  0  0  0  0  0  0  0  0
    0.0201    1.2039   -0.9597 N   0  0  0  0  0  0  0  0  0  0  0  0
    1.3221   -0.5445    0.1731 N   0  0  0  0  0  0  0  0  0  0  0  0
    1.4340    2.8402   -0.4196 N   0  0  0  0  0  0  0  0  0  0  0  0
    3.2584    0.1337    1.2178 N   0  0  0  0  0  0  0  0  0  0  0  0
    2.6687   -2.1987    1.3054 N   0  0  0  0  0  0  0  0  0  0  0  0
    1.0041    0.6954   -0.2556 C   0  0  0  0  0  0  0  0  0  0  0  0
   -1.1553    0.5717   -1.5120 C   0  0  0  0  0  0  0  0  0  0  0  0
    1.9152    1.6861    0.1059 C   0  0  0  0  0  0  0  0  0  0  0  0
    0.3026    2.5412   -1.0540 C   0  0  0  0  0  0  0  0  0  0  0  0
    3.0361    1.4172    0.8373 C   0  0  0  0  0  0  0  0  0  0  0  0
    2.4147   -0.8450    0.8930 C   0  0  0  0  0  0  0  0  0  0  0  0
   -2.3766    0.0317    0.4374 C   0  0  0  0  0  0  0  0  0  0  0  0
   -2.3944   -1.4803    0.4270 C   0  0  0  0  0  0  0  0  0  0  0  0
   -4.1115   -1.1909   -0.4622 H   0  0  0  0  0  0  0  0  0  0  0  0
    0.6914   -1.3334   -0.0773 H   0  0  0  0  0  0  0  0  0  0  0  0
    3.6404   -2.4954    1.5324 H   0  0  0  0  0  0  0  0  0  0  0  0
    1.8693   -2.8733    1.3728 H   0  0  0  0  0  0  0  0  0  0  0  0
   -1.3611    1.1109   -2.4871 H   0  0  0  0  0  0  0  0  0  0  0  0
   -0.8539   -0.4769   -1.7747 H   0  0  0  0  0  0  0  0  0  0  0  0
   -0.3261    3.2431   -1.5804 H   0  0  0  0  0  0  0  0  0  0  0  0
   -1.6066    0.3676    1.1904 H   0  0  0  0  0  0  0  0  0  0  0  0
   -3.3845    0.3260    0.8720 H   0  0  0  0  0  0  0  0  0  0  0  0
   -2.6446   -1.7795    1.4883 H   0  0  0  0  0  0  0  0  0  0  0  0
   -1.4675   -1.9564    0.1359 H   0  0  0  0  0  0  0  0  0  0  0  0
  1 10  1  0
  1 15  1  0
  2 13  2  0
  3 16  1  0
  4  9  1  0
  4 10  1  0
  4 12  1  0
  5  9  1  0
  5 14  1  0
  6 11  1  0
  6 12  2  0
  7 13  1  0
  7 14  2  0
  8 14  1  0
  9 11  2  0
 11 13  1  0
 15 16  1  0
  3 17  1  0
  5 18  1  0
  8 19  1  0
  8 20  1  0
 10 21  1  0
 10 22  1  0
 12 23  1  0
 15 24  1  0
 15 25  1  0
 16 26  1  0
 16 27  1  0
M  END

