46506953
     RDKit          3D

 41 40  0  0  0  0  0  0  0  0999 V2000
   -2.8083   -0.1654   -0.1298 C   0  0  0  0  0  0  0  0  0  0  0  0
   -1.8874    0.3313    0.9222 C   0  0  0  0  0  0  0  0  0  0  0  0
   -1.2894   -0.7049    1.8029 C   0  0  0  0  0  0  0  0  0  0  0  0
   -0.4712   -1.7349    1.1344 C   0  0  0  0  0  0  0  0  0  0  0  0
    0.7011   -1.1446    0.3907 C   0  0  0  0  0  0  0  0  0  0  0  0
   -3.2930    0.9779   -0.8877 N   0  0  0  0  0  4  0  0  0  0  0  0
   -3.5559    0.5954   -2.2814 C   0  0  0  0  0  0  0  0  0  0  0  0
   -2.4046    1.9936   -0.8854 O   0  0  0  0  0  1  0  0  0  0  0  0
   -4.5368    1.5020   -0.3232 C   0  0  0  0  0  0  0  0  0  0  0  0
    4.3821    0.7841   -1.6304 C   0  0  0  0  0  0  0  0  0  0  0  0
    4.8765   -0.1890   -0.6013 C   0  0  0  0  0  0  0  0  0  0  0  0
    3.6523   -0.8317    0.0538 C   0  0  0  0  0  0  0  0  0  0  0  0
    2.7907    0.2126    0.7119 C   0  0  0  0  0  0  0  0  0  0  0  0
    1.5758   -0.4128    1.3680 C   0  0  0  0  0  0  0  0  0  0  0  0
   -3.7025   -0.6612    0.3175 H   0  0  0  0  0  0  0  0  0  0  0  0
   -2.3800   -0.8690   -0.8431 H   0  0  0  0  0  0  0  0  0  0  0  0
   -2.4998    1.0070    1.5916 H   0  0  0  0  0  0  0  0  0  0  0  0
   -1.1167    0.9953    0.4850 H   0  0  0  0  0  0  0  0  0  0  0  0
   -2.1380   -1.2486    2.3281 H   0  0  0  0  0  0  0  0  0  0  0  0
   -0.7528   -0.2085    2.6334 H   0  0  0  0  0  0  0  0  0  0  0  0
   -1.0067   -2.3869    0.4320 H   0  0  0  0  0  0  0  0  0  0  0  0
   -0.0158   -2.4392    1.8918 H   0  0  0  0  0  0  0  0  0  0  0  0
    1.2698   -1.9031   -0.1655 H   0  0  0  0  0  0  0  0  0  0  0  0
    0.2766   -0.4421   -0.3702 H   0  0  0  0  0  0  0  0  0  0  0  0
   -4.2592    1.2977   -2.7559 H   0  0  0  0  0  0  0  0  0  0  0  0
   -3.9948   -0.4202   -2.2638 H   0  0  0  0  0  0  0  0  0  0  0  0
   -2.5754    0.6246   -2.8064 H   0  0  0  0  0  0  0  0  0  0  0  0
   -5.2400    0.7026   -0.0456 H   0  0  0  0  0  0  0  0  0  0  0  0
   -4.2796    2.1613    0.5118 H   0  0  0  0  0  0  0  0  0  0  0  0
   -5.0119    2.0848   -1.1422 H   0  0  0  0  0  0  0  0  0  0  0  0
    5.0669    0.7012   -2.5110 H   0  0  0  0  0  0  0  0  0  0  0  0
    4.3675    1.8214   -1.2292 H   0  0  0  0  0  0  0  0  0  0  0  0
    3.3723    0.4763   -1.9643 H   0  0  0  0  0  0  0  0  0  0  0  0
    5.4603    0.3555    0.1706 H   0  0  0  0  0  0  0  0  0  0  0  0
    5.5234   -0.9666   -1.0095 H   0  0  0  0  0  0  0  0  0  0  0  0
    3.1052   -1.3080   -0.7891 H   0  0  0  0  0  0  0  0  0  0  0  0
    3.9810   -1.5707    0.7887 H   0  0  0  0  0  0  0  0  0  0  0  0
    3.3846    0.6828    1.5160 H   0  0  0  0  0  0  0  0  0  0  0  0
    2.5059    1.0126    0.0079 H   0  0  0  0  0  0  0  0  0  0  0  0
    1.9255   -1.1076    2.1367 H   0  0  0  0  0  0  0  0  0  0  0  0
    1.0026    0.3952    1.8739 H   0  0  0  0  0  0  0  0  0  0  0  0
  1  6  1  0
  6  7  1  0
  6  8  1  0
  6  9  1  0
  1  2  1  0
 10 11  1  0
  2  3  1  0
 11 12  1  0
  3  4  1  0
  4  5  1  0
 12 13  1  0
  5 14  1  0
 13 14  1  0
  1 15  1  0
  1 16  1  0
  2 17  1  0
  2 18  1  0
  3 19  1  0
  3 20  1  0
  4 21  1  0
  4 22  1  0
  5 23  1  0
  5 24  1  0
  7 25  1  0
  7 26  1  0
  7 27  1  0
  9 28  1  0
  9 29  1  0
  9 30  1  0
 10 31  1  0
 10 32  1  0
 10 33  1  0
 11 34  1  0
 11 35  1  0
 12 36  1  0
 12 37  1  0
 13 38  1  0
 13 39  1  0
 14 40  1  0
 14 41  1  0
M  CHG  2   6   1   8  -1
M  END

