46508007
     RDKit          3D

 82 83  0  0  1  0  0  0  0  0999 V2000
   -4.2351   -2.3749    2.1301 O   0  0  0  0  0  0  0  0  0  0  0  0
   -1.9983   -0.1951    1.3462 O   0  0  0  0  0  0  0  0  0  0  0  0
    6.2977    1.0012    0.8501 O   0  0  0  0  0  0  0  0  0  0  0  0
    2.1561    0.9885   -0.6627 O   0  0  0  0  0  0  0  0  0  0  0  0
   -6.5321    3.1357   -1.1136 O   0  0  0  0  0  0  0  0  0  0  0  0
    5.7690   -1.1327    0.5366 O   0  0  0  0  0  0  0  0  0  0  0  0
   -6.0860    3.8574    1.0306 O   0  0  0  0  0  0  0  0  0  0  0  0
   -3.5452   -4.4668    1.2600 N   0  0  0  0  0  0  0  0  0  0  0  0
   -2.9962   -0.2830   -0.7318 N   0  0  0  0  0  0  0  0  0  0  0  0
    0.4803   -0.0148    0.5709 N   0  0  0  0  0  0  0  0  0  0  0  0
    3.9889    0.2973    1.2364 N   0  0  0  0  0  0  0  0  0  0  0  0
   -4.0922   -2.8325   -0.2684 C   0  0  1  0  0  0  0  0  0  0  0  0
   -4.6624   -4.1595   -0.7669 C   0  0  0  0  0  0  0  0  0  0  0  0
   -4.9538   -1.6621   -0.6271 C   0  0  0  0  0  0  0  0  0  0  0  0
   -3.8028   -5.1623    0.0064 C   0  0  0  0  0  0  0  0  0  0  0  0
   -4.3124   -0.3993   -0.1165 C   0  0  0  0  0  0  0  0  0  0  0  0
   -3.9948   -3.1120    1.1768 C   0  0  0  0  0  0  0  0  0  0  0  0
   -5.0750    0.8277   -0.4582 C   0  0  0  0  0  0  0  0  0  0  0  0
   -0.4966   -0.0880   -0.4541 C   0  0  2  0  0  0  0  0  0  0  0  0
   -1.8682   -0.1898    0.0856 C   0  0  0  0  0  0  0  0  0  0  0  0
    2.7183    0.5793    1.5863 C   0  0  1  0  0  0  0  0  0  0  0  0
    2.5161    1.9304    2.2846 C   0  0  0  0  0  0  0  0  0  0  0  0
    1.7549    0.5301    0.4100 C   0  0  0  0  0  0  0  0  0  0  0  0
   -0.2752   -1.3884   -1.1995 C   0  0  0  0  0  0  0  0  0  0  0  0
   -5.2258    1.7706    0.4532 C   0  0  0  0  0  0  0  0  0  0  0  0
    3.2911    2.0530    3.5628 C   0  0  0  0  0  0  0  0  0  0  0  0
    2.8726    3.0636    1.3736 C   0  0  0  0  0  0  0  0  0  0  0  0
   -0.3038   -1.4104   -2.5710 C   0  0  0  0  0  0  0  0  0  0  0  0
   -0.0567   -2.5435   -0.4965 C   0  0  0  0  0  0  0  0  0  0  0  0
    7.6291    0.7105    0.4774 C   0  0  0  0  0  0  0  0  0  0  0  0
    5.2869    0.0023    0.8776 C   0  0  0  0  0  0  0  0  0  0  0  0
   -5.9655    2.9715    0.1403 C   0  0  0  0  0  0  0  0  0  0  0  0
   -0.1108   -2.6007   -3.2765 C   0  0  0  0  0  0  0  0  0  0  0  0
    0.1371   -3.7472   -1.1898 C   0  0  0  0  0  0  0  0  0  0  0  0
    8.3977    2.0269    0.5729 C   0  0  0  0  0  0  0  0  0  0  0  0
    7.7806    0.2207   -0.9223 C   0  0  0  0  0  0  0  0  0  0  0  0
    8.2710   -0.2591    1.4562 C   0  0  0  0  0  0  0  0  0  0  0  0
    0.1112   -3.7766   -2.5783 C   0  0  0  0  0  0  0  0  0  0  0  0
   -7.2596    4.3467   -1.3679 C   0  0  0  0  0  0  0  0  0  0  0  0
   -6.3169    5.5327   -1.1856 C   0  0  0  0  0  0  0  0  0  0  0  0
   -3.0933   -4.9274    2.0809 H   0  0  0  0  0  0  0  0  0  0  0  0
   -2.9967   -0.2754   -1.7808 H   0  0  0  0  0  0  0  0  0  0  0  0
    0.2127   -0.4033    1.5239 H   0  0  0  0  0  0  0  0  0  0  0  0
    3.6361   -0.9807    0.9578 H   0  0  0  0  0  0  0  0  0  0  0  0
   -3.1020   -2.6809   -0.7349 H   0  0  0  0  0  0  0  0  0  0  0  0
   -4.5105   -4.2641   -1.8609 H   0  0  0  0  0  0  0  0  0  0  0  0
   -5.7376   -4.2417   -0.5190 H   0  0  0  0  0  0  0  0  0  0  0  0
   -5.9579   -1.7657   -0.1141 H   0  0  0  0  0  0  0  0  0  0  0  0
   -5.1498   -1.6149   -1.7108 H   0  0  0  0  0  0  0  0  0  0  0  0
   -4.3328   -6.1065    0.1632 H   0  0  0  0  0  0  0  0  0  0  0  0
   -2.8452   -5.2933   -0.5493 H   0  0  0  0  0  0  0  0  0  0  0  0
   -4.2114   -0.4419    0.9804 H   0  0  0  0  0  0  0  0  0  0  0  0
   -5.5147    0.9637   -1.4341 H   0  0  0  0  0  0  0  0  0  0  0  0
   -0.4589    0.7173   -1.2178 H   0  0  0  0  0  0  0  0  0  0  0  0
    2.2581   -0.1927    2.2903 H   0  0  0  0  0  0  0  0  0  0  0  0
    1.4293    1.9536    2.5424 H   0  0  0  0  0  0  0  0  0  0  0  0
   -4.7847    1.6010    1.4165 H   0  0  0  0  0  0  0  0  0  0  0  0
    4.2712    2.5847    3.3887 H   0  0  0  0  0  0  0  0  0  0  0  0
    2.7497    2.7354    4.2836 H   0  0  0  0  0  0  0  0  0  0  0  0
    3.4295    1.1185    4.1149 H   0  0  0  0  0  0  0  0  0  0  0  0
    3.3053    2.7394    0.4008 H   0  0  0  0  0  0  0  0  0  0  0  0
    1.9244    3.6318    1.1610 H   0  0  0  0  0  0  0  0  0  0  0  0
    3.5772    3.7996    1.8201 H   0  0  0  0  0  0  0  0  0  0  0  0
   -0.4777   -0.5027   -3.1310 H   0  0  0  0  0  0  0  0  0  0  0  0
   -0.0154   -2.6133    0.5817 H   0  0  0  0  0  0  0  0  0  0  0  0
   -0.1473   -2.5594   -4.3357 H   0  0  0  0  0  0  0  0  0  0  0  0
    0.3146   -4.6664   -0.6472 H   0  0  0  0  0  0  0  0  0  0  0  0
    9.3993    1.9388    0.1322 H   0  0  0  0  0  0  0  0  0  0  0  0
    8.4332    2.4056    1.6298 H   0  0  0  0  0  0  0  0  0  0  0  0
    7.8813    2.8409    0.0173 H   0  0  0  0  0  0  0  0  0  0  0  0
    7.3795   -0.7829   -1.0824 H   0  0  0  0  0  0  0  0  0  0  0  0
    7.3509    0.9726   -1.6339 H   0  0  0  0  0  0  0  0  0  0  0  0
    8.8686    0.2156   -1.1599 H   0  0  0  0  0  0  0  0  0  0  0  0
    9.3746   -0.0658    1.4135 H   0  0  0  0  0  0  0  0  0  0  0  0
    7.9410   -0.0403    2.4782 H   0  0  0  0  0  0  0  0  0  0  0  0
    8.1078   -1.3062    1.1831 H   0  0  0  0  0  0  0  0  0  0  0  0
    0.2553   -4.6665   -3.1553 H   0  0  0  0  0  0  0  0  0  0  0  0
   -8.0934    4.3998   -0.6381 H   0  0  0  0  0  0  0  0  0  0  0  0
   -7.6296    4.3386   -2.3862 H   0  0  0  0  0  0  0  0  0  0  0  0
   -6.4162    5.8691   -0.1323 H   0  0  0  0  0  0  0  0  0  0  0  0
   -6.6517    6.3295   -1.8721 H   0  0  0  0  0  0  0  0  0  0  0  0
   -5.2660    5.1891   -1.3852 H   0  0  0  0  0  0  0  0  0  0  0  0
  1 17  2  0
  2 20  2  0
  3 30  1  0
  3 31  1  0
  4 23  2  0
  5 32  1  0
  5 39  1  0
  6 31  2  0
  7 32  2  0
  8 15  1  0
  8 17  1  0
  9 16  1  0
  9 20  1  0
 19 10  1  0
 10 23  1  0
 21 11  1  0
 11 31  1  0
 12 13  1  0
 12 14  1  0
 12 17  1  0
 13 15  1  0
 14 16  1  0
 16 18  1  0
 18 25  2  0
 19 20  1  0
 19 24  1  0
 21 22  1  0
 21 23  1  0
 22 26  1  0
 22 27  1  0
 24 28  2  0
 24 29  1  0
 25 32  1  0
 28 33  1  0
 29 34  2  0
 30 35  1  0
 30 36  1  0
 30 37  1  0
 33 38  2  0
 34 38  1  0
 39 40  1  0
  8 41  1  0
  9 42  1  0
 10 43  1  0
 11 44  1  0
 12 45  1  6
 13 46  1  0
 13 47  1  0
 14 48  1  0
 14 49  1  0
 15 50  1  0
 15 51  1  0
 16 52  1  0
 18 53  1  0
 19 54  1  6
 21 55  1  1
 22 56  1  0
 25 57  1  0
 26 58  1  0
 26 59  1  0
 26 60  1  0
 27 61  1  0
 27 62  1  0
 27 63  1  0
 28 64  1  0
 29 65  1  0
 33 66  1  0
 34 67  1  0
 35 68  1  0
 35 69  1  0
 35 70  1  0
 36 71  1  0
 36 72  1  0
 36 73  1  0
 37 74  1  0
 37 75  1  0
 37 76  1  0
 38 77  1  0
 39 78  1  0
 39 79  1  0
 40 80  1  0
 40 81  1  0
 40 82  1  0
M  END

