46505367
     RDKit          3D

 74 76  0  0  1  0  0  0  0  0999 V2000
   -5.9291    2.7003    0.1198 C   0  0  0  0  0  0  0  0  0  0  0  0
    6.8229   -2.4049   -0.5571 C   0  0  0  0  0  0  0  0  0  0  0  0
    6.1234    1.9050   -0.0567 C   0  0  0  0  0  0  0  0  0  0  0  0
   -0.4833    2.2519    0.6480 C   0  0  0  0  0  0  0  0  0  0  0  0
    4.4031   -2.3953   -1.1957 C   0  0  0  0  0  0  0  0  0  0  0  0
   -6.4590    1.2948   -0.0515 C   0  0  2  0  0  0  0  0  0  0  0  0
   -0.9137    1.3493    1.7780 C   0  0  1  0  0  0  0  0  0  0  0  0
    0.7626    1.7322   -0.0038 C   0  0  2  0  0  0  0  0  0  0  0  0
   -3.6518   -1.6384   -0.5577 C   0  0  2  0  0  0  0  0  0  0  0  0
   -5.0436   -2.1447   -0.7038 C   0  0  2  0  0  0  0  0  0  0  0  0
   -6.0116   -1.0147   -0.6522 C   0  0  1  0  0  0  0  0  0  0  0  0
   -0.1193   -0.5663    0.4600 C   0  0  1  0  0  0  0  0  0  0  0  0
    4.0596    0.1201   -1.1694 C   0  0  2  0  0  0  0  0  0  0  0  0
   -5.3565    0.2940   -0.2694 C   0  0  2  0  0  0  0  0  0  0  0  0
   -1.2945    0.0411    1.1744 C   0  0  2  0  0  0  0  0  0  0  0  0
    1.0464    0.3080    0.2176 C   0  0  1  0  0  0  0  0  0  0  0  0
    5.4929   -0.2873   -0.8204 C   0  0  2  0  0  0  0  0  0  0  0  0
   -3.4321   -0.6948    0.5974 C   0  0  2  0  0  0  0  0  0  0  0  0
    3.0683   -0.7108   -0.3933 C   0  0  2  0  0  0  0  0  0  0  0  0
    5.4843   -1.7435   -0.3587 C   0  0  2  0  0  0  0  0  0  0  0  0
    0.2238    1.1778    2.6569 N   0  0  0  0  0  0  0  0  0  0  0  0
    1.8936    2.5476    0.4941 N   0  0  0  0  0  0  0  0  0  0  0  0
   -3.2460   -1.0295   -1.8076 N   0  0  0  0  0  0  0  0  0  0  0  0
    6.0210    0.5105    0.2496 N   0  0  0  0  0  0  0  0  0  0  0  0
   -7.2520    1.2884   -1.2048 O   0  0  0  0  0  0  0  0  0  0  0  0
   -5.3063   -3.1662    0.1955 O   0  0  0  0  0  0  0  0  0  0  0  0
   -6.7320   -0.9014   -1.8269 O   0  0  0  0  0  0  0  0  0  0  0  0
    0.3238   -1.6705    1.2361 O   0  0  0  0  0  0  0  0  0  0  0  0
    3.8723    0.1191   -2.5300 O   0  0  0  0  0  0  0  0  0  0  0  0
    5.1285   -1.8472    0.9775 O   0  0  0  0  0  0  0  0  0  0  0  0
    3.1806   -2.0271   -0.7103 O   0  0  0  0  0  0  0  0  0  0  0  0
   -4.4916    0.1829    0.7766 O   0  0  0  0  0  0  0  0  0  0  0  0
   -2.3329    0.0693    0.2895 O   0  0  0  0  0  0  0  0  0  0  0  0
    1.8076   -0.2893   -0.7877 O   0  0  0  0  0  0  0  0  0  0  0  0
   -6.7790    3.4130    0.0979 H   0  0  0  0  0  0  0  0  0  0  0  0
   -5.2582    2.9788   -0.7126 H   0  0  0  0  0  0  0  0  0  0  0  0
   -5.4382    2.8304    1.1137 H   0  0  0  0  0  0  0  0  0  0  0  0
    7.2477   -2.1506   -1.5607 H   0  0  0  0  0  0  0  0  0  0  0  0
    7.5537   -2.0394    0.1926 H   0  0  0  0  0  0  0  0  0  0  0  0
    6.7192   -3.4807   -0.4033 H   0  0  0  0  0  0  0  0  0  0  0  0
    5.2617    2.4318    0.3866 H   0  0  0  0  0  0  0  0  0  0  0  0
    7.0407    2.3158    0.4242 H   0  0  0  0  0  0  0  0  0  0  0  0
    6.1365    2.1169   -1.1440 H   0  0  0  0  0  0  0  0  0  0  0  0
   -1.3129    2.3922   -0.0887 H   0  0  0  0  0  0  0  0  0  0  0  0
   -0.2833    3.2831    1.0347 H   0  0  0  0  0  0  0  0  0  0  0  0
    4.5367   -2.0746   -2.2731 H   0  0  0  0  0  0  0  0  0  0  0  0
    4.5271   -3.5162   -1.1871 H   0  0  0  0  0  0  0  0  0  0  0  0
   -7.1261    1.0498    0.7879 H   0  0  0  0  0  0  0  0  0  0  0  0
   -1.7077    1.8021    2.4020 H   0  0  0  0  0  0  0  0  0  0  0  0
    0.6868    2.0356   -1.0737 H   0  0  0  0  0  0  0  0  0  0  0  0
   -2.9879   -2.5193   -0.4238 H   0  0  0  0  0  0  0  0  0  0  0  0
   -5.1065   -2.6027   -1.7327 H   0  0  0  0  0  0  0  0  0  0  0  0
   -6.7442   -1.2494    0.1669 H   0  0  0  0  0  0  0  0  0  0  0  0
   -0.4471   -1.0059   -0.5187 H   0  0  0  0  0  0  0  0  0  0  0  0
    4.0099    1.2063   -0.8570 H   0  0  0  0  0  0  0  0  0  0  0  0
   -4.7881    0.6476   -1.1555 H   0  0  0  0  0  0  0  0  0  0  0  0
   -1.5908   -0.6354    2.0001 H   0  0  0  0  0  0  0  0  0  0  0  0
    1.7270    0.2427    1.1187 H   0  0  0  0  0  0  0  0  0  0  0  0
    6.0803   -0.2235   -1.7316 H   0  0  0  0  0  0  0  0  0  0  0  0
   -3.3350   -1.2502    1.5530 H   0  0  0  0  0  0  0  0  0  0  0  0
    3.2676   -0.4830    0.6795 H   0  0  0  0  0  0  0  0  0  0  0  0
    0.2537    1.9498    3.3847 H   0  0  0  0  0  0  0  0  0  0  0  0
    0.1489    0.2314    3.0828 H   0  0  0  0  0  0  0  0  0  0  0  0
    2.3376    2.0880    1.3270 H   0  0  0  0  0  0  0  0  0  0  0  0
    1.5118    3.4789    0.7578 H   0  0  0  0  0  0  0  0  0  0  0  0
   -2.3147   -1.3697   -2.1339 H   0  0  0  0  0  0  0  0  0  0  0  0
   -3.9218   -1.2112   -2.5830 H   0  0  0  0  0  0  0  0  0  0  0  0
    5.4496    0.4003    1.1152 H   0  0  0  0  0  0  0  0  0  0  0  0
   -7.8893    2.0575   -1.0947 H   0  0  0  0  0  0  0  0  0  0  0  0
   -4.7644   -3.0164    1.0119 H   0  0  0  0  0  0  0  0  0  0  0  0
   -6.1918   -0.4348   -2.4836 H   0  0  0  0  0  0  0  0  0  0  0  0
    1.3034   -1.6842    1.2644 H   0  0  0  0  0  0  0  0  0  0  0  0
    4.6803    0.2083   -3.0598 H   0  0  0  0  0  0  0  0  0  0  0  0
    5.8479   -1.5737    1.5947 H   0  0  0  0  0  0  0  0  0  0  0  0
  1  6  1  0
  4  7  1  0
  4  8  1  0
  9 10  1  0
 10 11  1  0
 14  6  1  0
 11 14  1  0
  7 15  1  0
 12 15  1  0
  8 16  1  0
 12 16  1  0
 13 17  1  0
  9 18  1  0
 13 19  1  0
 20  2  1  0
  5 20  1  0
 17 20  1  0
  7 21  1  0
  8 22  1  0
  9 23  1  0
  3 24  1  0
 17 24  1  0
  6 25  1  0
 10 26  1  0
 11 27  1  0
 12 28  1  0
 13 29  1  0
 20 30  1  1
  5 31  1  0
 19 31  1  0
 14 32  1  0
 18 32  1  0
 15 33  1  0
 18 33  1  0
 16 34  1  0
 19 34  1  0
  1 35  1  0
  1 36  1  0
  1 37  1  0
  2 38  1  0
  2 39  1  0
  2 40  1  0
  3 41  1  0
  3 42  1  0
  3 43  1  0
  4 44  1  0
  4 45  1  0
  5 46  1  0
  5 47  1  0
  6 48  1  1
  7 49  1  1
  8 50  1  6
  9 51  1  1
 10 52  1  6
 11 53  1  1
 12 54  1  6
 13 55  1  1
 14 56  1  6
 15 57  1  1
 16 58  1  1
 17 59  1  6
 18 60  1  1
 19 61  1  1
 21 62  1  0
 21 63  1  0
 22 64  1  0
 22 65  1  0
 23 66  1  0
 23 67  1  0
 24 68  1  0
 25 69  1  0
 26 70  1  0
 27 71  1  0
 28 72  1  0
 29 73  1  0
 30 74  1  0
M  END

