46506033
     RDKit          3D

 41 41  0  0  1  0  0  0  0  0999 V2000
   -0.7606   -0.5114   -1.1174 O   0  0  0  0  0  0  0  0  0  0  0  0
    2.6055   -1.6757   -0.5929 O   0  0  0  0  0  0  0  0  0  0  0  0
    1.9690    0.9335    0.6069 N   0  0  0  0  0  0  0  0  0  0  0  0
    1.3303   -1.3420   -0.1312 C   0  0  0  0  0  0  0  0  0  0  0  0
    1.3827   -0.2962    0.9629 C   0  0  0  0  0  0  0  0  0  0  0  0
    3.3467    0.9792    0.3391 C   0  0  0  0  0  0  0  0  0  0  0  0
    0.5341   -0.9006   -1.3116 C   0  0  0  0  0  0  0  0  0  0  0  0
    3.7341    2.4411    0.0850 C   0  0  0  0  0  0  0  0  0  0  0  0
    4.2639    0.4237    1.3523 C   0  0  0  0  0  0  0  0  0  0  0  0
   -1.8966   -1.1282   -0.6910 C   0  0  0  0  0  0  0  0  0  0  0  0
   -3.0939   -0.4092   -0.5826 C   0  0  0  0  0  0  0  0  0  0  0  0
   -3.0315    1.0245   -0.9507 C   0  0  0  0  0  0  0  0  0  0  0  0
   -1.9453   -2.4574   -0.3522 C   0  0  0  0  0  0  0  0  0  0  0  0
   -4.2766   -0.9528   -0.1659 C   0  0  0  0  0  0  0  0  0  0  0  0
   -3.1387   -3.0380    0.0766 C   0  0  0  0  0  0  0  0  0  0  0  0
   -4.2857   -2.2892    0.1662 C   0  0  0  0  0  0  0  0  0  0  0  0
   -2.3814    1.8303    0.1180 C   0  0  0  0  0  0  0  0  0  0  0  0
   -2.9550    2.8185    0.7568 C   0  0  0  0  0  0  0  0  0  0  0  0
    2.5306   -2.0229   -1.5163 H   0  0  0  0  0  0  0  0  0  0  0  0
    1.6208    1.6985    1.2191 H   0  0  0  0  0  0  0  0  0  0  0  0
    0.8904   -2.2352    0.3235 H   0  0  0  0  0  0  0  0  0  0  0  0
    1.8114   -0.7790    1.8773 H   0  0  0  0  0  0  0  0  0  0  0  0
    0.3098   -0.1005    1.2385 H   0  0  0  0  0  0  0  0  0  0  0  0
    3.5360    0.4520   -0.6404 H   0  0  0  0  0  0  0  0  0  0  0  0
    1.1199   -0.1355   -1.9138 H   0  0  0  0  0  0  0  0  0  0  0  0
    0.4966   -1.7856   -2.0329 H   0  0  0  0  0  0  0  0  0  0  0  0
    4.6119    2.5151   -0.5888 H   0  0  0  0  0  0  0  0  0  0  0  0
    2.8480    2.9778   -0.2569 H   0  0  0  0  0  0  0  0  0  0  0  0
    4.0534    2.8337    1.0911 H   0  0  0  0  0  0  0  0  0  0  0  0
    3.7692   -0.1412    2.1702 H   0  0  0  0  0  0  0  0  0  0  0  0
    4.8314    1.2376    1.8499 H   0  0  0  0  0  0  0  0  0  0  0  0
    5.0573   -0.2521    0.9099 H   0  0  0  0  0  0  0  0  0  0  0  0
   -4.0644    1.4086   -1.0670 H   0  0  0  0  0  0  0  0  0  0  0  0
   -2.4649    1.1890   -1.9019 H   0  0  0  0  0  0  0  0  0  0  0  0
   -1.0531   -3.0872   -0.4294 H   0  0  0  0  0  0  0  0  0  0  0  0
   -5.2037   -0.4108   -0.0788 H   0  0  0  0  0  0  0  0  0  0  0  0
   -3.1518   -4.0903    0.3385 H   0  0  0  0  0  0  0  0  0  0  0  0
   -5.2237   -2.7435    0.5045 H   0  0  0  0  0  0  0  0  0  0  0  0
   -1.3548    1.5452    0.3556 H   0  0  0  0  0  0  0  0  0  0  0  0
   -2.4033    3.3476    1.5195 H   0  0  0  0  0  0  0  0  0  0  0  0
   -3.9679    3.1288    0.5487 H   0  0  0  0  0  0  0  0  0  0  0  0
  1  7  1  0
  1 10  1  0
  2  4  1  0
  3  5  1  0
  3  6  1  0
  4  5  1  0
  4  7  1  0
  6  8  1  0
  6  9  1  0
 10 11  2  0
 10 13  1  0
 11 12  1  0
 11 14  1  0
 12 17  1  0
 13 15  2  0
 14 16  2  0
 15 16  1  0
 17 18  2  3
  2 19  1  0
  3 20  1  0
  4 21  1  0
  5 22  1  0
  5 23  1  0
  6 24  1  0
  7 25  1  0
  7 26  1  0
  8 27  1  0
  8 28  1  0
  8 29  1  0
  9 30  1  0
  9 31  1  0
  9 32  1  0
 12 33  1  0
 12 34  1  0
 13 35  1  0
 14 36  1  0
 15 37  1  0
 16 38  1  0
 17 39  1  0
 18 40  1  0
 18 41  1  0
M  END

