46509165
     RDKit          3D

 23 22  0  0  0  0  0  0  0  0999 V2000
   -0.1723    0.0971   -0.9579 C   0  0  0  0  0  0  0  0  0  0  0  0
    0.8764   -0.4914   -0.0091 C   0  0  0  0  0  0  0  0  0  0  0  0
    1.9614    0.5572    0.0651 C   0  0  0  0  0  0  0  0  0  0  0  0
    3.0752    0.2021    0.9317 C   0  0  0  0  0  0  0  0  0  0  0  0
    3.1239   -0.8734    1.5699 O   0  0  0  0  0  0  0  0  0  0  0  0
    4.1298    1.0886    1.0591 O   0  0  0  0  0  0  0  0  0  0  0  0
   -1.3398   -0.7798   -1.1770 C   0  0  0  0  0  0  0  0  0  0  0  0
   -2.0849   -1.1121    0.0751 C   0  0  0  0  0  0  0  0  0  0  0  0
   -2.6530    0.0436    0.7826 C   0  0  0  0  0  0  0  0  0  0  0  0
   -3.2579   -0.0817    1.8910 O   0  0  0  0  0  0  0  0  0  0  0  0
   -2.5603    1.3209    0.2822 O   0  0  0  0  0  0  0  0  0  0  0  0
    0.3865    0.3476   -1.8859 H   0  0  0  0  0  0  0  0  0  0  0  0
   -0.4611    1.0619   -0.5139 H   0  0  0  0  0  0  0  0  0  0  0  0
    0.4268   -0.7179    0.9731 H   0  0  0  0  0  0  0  0  0  0  0  0
    1.2285   -1.4336   -0.4378 H   0  0  0  0  0  0  0  0  0  0  0  0
    1.4537    1.4997    0.4225 H   0  0  0  0  0  0  0  0  0  0  0  0
    2.3339    0.6866   -0.9756 H   0  0  0  0  0  0  0  0  0  0  0  0
    4.2755    1.8562    0.3850 H   0  0  0  0  0  0  0  0  0  0  0  0
   -2.0697   -0.1849   -1.8078 H   0  0  0  0  0  0  0  0  0  0  0  0
   -1.1333   -1.6706   -1.8072 H   0  0  0  0  0  0  0  0  0  0  0  0
   -2.9098   -1.8382   -0.1950 H   0  0  0  0  0  0  0  0  0  0  0  0
   -1.3972   -1.6141    0.8149 H   0  0  0  0  0  0  0  0  0  0  0  0
   -3.2322    2.0362    0.5149 H   0  0  0  0  0  0  0  0  0  0  0  0
  1  2  1  0
  2  3  1  0
  3  4  1  0
  4  5  2  0
  4  6  1  0
  1  7  1  0
  7  8  1  0
  8  9  1  0
  9 10  2  0
  9 11  1  0
  1 12  1  0
  1 13  1  0
  2 14  1  0
  2 15  1  0
  3 16  1  0
  3 17  1  0
  6 18  1  0
  7 19  1  0
  7 20  1  0
  8 21  1  0
  8 22  1  0
 11 23  1  0
M  END

