46507435
     RDKit          3D

 18 18  0  0  0  0  0  0  0  0999 V2000
    0.5208    2.1615   -0.4365 N   0  0  0  0  0  0  0  0  0  0  0  0
   -0.2247    0.9787   -0.1486 C   0  0  0  0  0  0  0  0  0  0  0  0
   -1.6038    0.9809   -0.0858 C   0  0  0  0  0  0  0  0  0  0  0  0
   -2.3204   -0.1741    0.1948 C   0  0  0  0  0  0  0  0  0  0  0  0
   -1.6475   -1.3572    0.4176 C   0  0  0  0  0  0  0  0  0  0  0  0
   -0.2694   -1.3949    0.3625 C   0  0  0  0  0  0  0  0  0  0  0  0
    0.4153   -0.2266    0.0805 C   0  0  0  0  0  0  0  0  0  0  0  0
    1.8985   -0.2166    0.0102 C   0  0  0  0  0  0  0  0  0  0  0  0
    2.4046   -1.5009    0.2624 O   0  0  0  0  0  0  0  0  0  0  0  0
    1.1300    2.2890   -1.2496 H   0  0  0  0  0  0  0  0  0  0  0  0
    0.4407    2.9714    0.2399 H   0  0  0  0  0  0  0  0  0  0  0  0
   -2.1451    1.9004   -0.2581 H   0  0  0  0  0  0  0  0  0  0  0  0
   -3.4031   -0.1747    0.2446 H   0  0  0  0  0  0  0  0  0  0  0  0
   -2.2290   -2.2434    0.6343 H   0  0  0  0  0  0  0  0  0  0  0  0
    0.2688   -2.3388    0.5401 H   0  0  0  0  0  0  0  0  0  0  0  0
    2.3722    0.4620    0.7193 H   0  0  0  0  0  0  0  0  0  0  0  0
    2.2046    0.0097   -1.0521 H   0  0  0  0  0  0  0  0  0  0  0  0
    2.1873   -2.1265   -0.4757 H   0  0  0  0  0  0  0  0  0  0  0  0
  1  2  1  0
  2  3  2  0
  3  4  1  0
  4  5  2  0
  5  6  1  0
  6  7  2  0
  2  7  1  0
  7  8  1  0
  8  9  1  0
  1 10  1  0
  1 11  1  0
  3 12  1  0
  4 13  1  0
  5 14  1  0
  6 15  1  0
  8 16  1  0
  8 17  1  0
  9 18  1  0
M  END

