46506042
     RDKit          3D

 54 56  0  0  1  0  0  0  0  0999 V2000
    2.1698   -2.6421   -0.8873 C   0  0  0  0  0  0  0  0  0  0  0  0
   -0.4180    1.3765    0.0011 C   0  0  0  0  0  0  0  0  0  0  0  0
   -1.4167   -0.5874   -0.8262 C   0  0  0  0  0  0  0  0  0  0  0  0
    0.8041    0.7328    0.0351 C   0  0  0  0  0  0  0  0  0  0  0  0
   -0.2179   -1.2565   -0.8057 C   0  0  0  0  0  0  0  0  0  0  0  0
   -6.2250    0.3030   -0.1316 C   0  0  0  0  0  0  0  0  0  0  0  0
   -7.6733    0.7046   -0.1031 C   0  0  0  0  0  0  0  0  0  0  0  0
    3.3439   -0.8137    0.2960 C   0  0  0  0  0  0  0  0  0  0  0  0
    4.5942   -1.1334   -1.9530 C   0  0  0  0  0  0  0  0  0  0  0  0
   -1.5717    0.7361   -0.4310 C   0  0  0  0  0  0  0  0  0  0  0  0
    4.5035   -0.7821   -0.6250 C   0  0  0  0  0  0  0  0  0  0  0  0
    0.8991   -0.5652   -0.3627 C   0  0  0  0  0  0  0  0  0  0  0  0
   -5.2780    1.3909    0.3296 C   0  0  1  0  0  0  0  0  0  0  0  0
   -8.4731   -0.4451   -0.5833 C   0  0  0  0  0  0  0  0  0  0  0  0
    5.7673   -0.3700   -0.2577 C   0  0  0  0  0  0  0  0  0  0  0  0
    6.2428    0.0899    0.9655 C   0  0  0  0  0  0  0  0  0  0  0  0
   -2.8698    1.3809   -0.4762 C   0  0  0  0  0  0  0  0  0  0  0  0
    6.5695   -0.4837   -1.3557 C   0  0  0  0  0  0  0  0  0  0  0  0
   -5.5207    1.8367    1.7139 C   0  0  0  0  0  0  0  0  0  0  0  0
    8.3553    0.3248   -0.0221 C   0  0  0  0  0  0  0  0  0  0  0  0
    5.3757    0.1941    2.0780 N   0  0  0  0  0  0  0  0  0  0  0  0
    9.7160    0.6951    0.1314 N   0  0  0  0  0  0  0  0  0  0  0  0
   -3.9241    0.8405    0.2896 N   0  0  0  0  0  0  0  0  0  0  0  0
    7.5346    0.4309    1.0631 N   0  0  0  0  0  0  0  0  0  0  0  0
    7.8739   -0.1239   -1.2024 N   0  0  0  0  0  0  0  0  0  0  0  0
    2.1203   -1.2862   -0.3122 N   0  0  0  0  0  0  0  0  0  0  0  0
   -7.8852   -1.6195   -0.9986 O   0  0  0  0  0  0  0  0  0  0  0  0
   -9.7222   -0.3678   -0.6220 O   0  0  0  0  0  0  0  0  0  0  0  0
   -3.0495    2.3882   -1.1738 O   0  0  0  0  0  0  0  0  0  0  0  0
   -6.7151    2.4315    2.0527 O   0  0  0  0  0  0  0  0  0  0  0  0
   -4.6424    1.6834    2.6100 O   0  0  0  0  0  0  0  0  0  0  0  0
    5.8463   -0.9351   -2.3353 O   0  0  0  0  0  0  0  0  0  0  0  0
    1.4971   -3.3231   -0.3491 H   0  0  0  0  0  0  0  0  0  0  0  0
    3.1879   -3.0190   -0.8057 H   0  0  0  0  0  0  0  0  0  0  0  0
    1.7689   -2.6275   -1.9439 H   0  0  0  0  0  0  0  0  0  0  0  0
   -0.5401    2.4134    0.3113 H   0  0  0  0  0  0  0  0  0  0  0  0
   -2.3196   -1.1121   -1.1741 H   0  0  0  0  0  0  0  0  0  0  0  0
    1.6344    1.3133    0.3831 H   0  0  0  0  0  0  0  0  0  0  0  0
   -0.1701   -2.3073   -1.1333 H   0  0  0  0  0  0  0  0  0  0  0  0
   -6.1330   -0.5940    0.5241 H   0  0  0  0  0  0  0  0  0  0  0  0
   -5.9736   -0.0389   -1.1509 H   0  0  0  0  0  0  0  0  0  0  0  0
   -8.0442    0.9354    0.9270 H   0  0  0  0  0  0  0  0  0  0  0  0
   -7.8223    1.5771   -0.7703 H   0  0  0  0  0  0  0  0  0  0  0  0
    3.1777    0.1755    0.7050 H   0  0  0  0  0  0  0  0  0  0  0  0
    3.6425   -1.5211    1.1270 H   0  0  0  0  0  0  0  0  0  0  0  0
    3.7870   -1.5083   -2.5852 H   0  0  0  0  0  0  0  0  0  0  0  0
   -5.3782    2.2437   -0.3794 H   0  0  0  0  0  0  0  0  0  0  0  0
    4.7886    1.0308    2.3105 H   0  0  0  0  0  0  0  0  0  0  0  0
    5.2914   -0.6102    2.7409 H   0  0  0  0  0  0  0  0  0  0  0  0
   10.2703    0.1881    0.8610 H   0  0  0  0  0  0  0  0  0  0  0  0
   10.1092    1.4299   -0.4598 H   0  0  0  0  0  0  0  0  0  0  0  0
   -3.7766   -0.0176    0.8946 H   0  0  0  0  0  0  0  0  0  0  0  0
   -8.1755   -2.0849   -1.8614 H   0  0  0  0  0  0  0  0  0  0  0  0
   -6.9352    3.3283    1.6475 H   0  0  0  0  0  0  0  0  0  0  0  0
  2  4  2  0
  3  5  1  0
  6  7  1  0
  2 10  1  0
  3 10  2  0
  8 11  1  0
  9 11  2  0
  4 12  1  0
  5 12  2  0
  6 13  1  0
  7 14  1  0
 11 15  1  0
 15 16  2  0
 10 17  1  0
 15 18  1  0
 13 19  1  0
 16 21  1  0
 20 22  1  0
 13 23  1  0
 17 23  1  0
 16 24  1  0
 20 24  2  0
 18 25  2  0
 20 25  1  0
  1 26  1  0
  8 26  1  0
 12 26  1  0
 14 27  1  0
 14 28  2  0
 17 29  2  0
 19 30  1  0
 19 31  2  0
  9 32  1  0
 18 32  1  0
  1 33  1  0
  1 34  1  0
  1 35  1  0
  2 36  1  0
  3 37  1  0
  4 38  1  0
  5 39  1  0
  6 40  1  0
  6 41  1  0
  7 42  1  0
  7 43  1  0
  8 44  1  0
  8 45  1  0
  9 46  1  0
 13 47  1  6
 21 48  1  0
 21 49  1  0
 22 50  1  0
 22 51  1  0
 23 52  1  0
 27 53  1  0
 30 54  1  0
M  END

