46505349
     RDKit          3D

 48 51  0  0  1  0  0  0  0  0999 V2000
    3.1316   -0.0184   -0.8378 C   0  0  1  0  0  0  0  0  0  0  0  0
    0.9924   -1.1842   -0.1680 C   0  0  2  0  0  0  0  0  0  0  0  0
    1.7615   -1.2952    1.1411 C   0  0  0  0  0  0  0  0  0  0  0  0
    2.7648   -0.2120    1.3487 C   0  0  1  0  0  0  0  0  0  0  0  0
    3.8132   -0.4482    0.3425 N   0  0  0  0  0  0  0  0  0  0  0  0
    2.0150   -0.9580   -1.2402 C   0  0  0  0  0  0  0  0  0  0  0  0
    2.2732    1.1630    0.9914 C   0  0  0  0  0  0  0  0  0  0  0  0
    2.5953    1.3320   -0.4788 C   0  0  0  0  0  0  0  0  0  0  0  0
   -1.2643   -0.5498   -0.2380 C   0  0  0  0  0  0  0  0  0  0  0  0
    0.0532   -0.2120   -0.1587 O   0  0  0  0  0  0  0  0  0  0  0  0
   -2.0184   -0.2897    1.0227 C   0  0  0  0  0  0  0  0  0  0  0  0
   -2.0048   -0.1142   -1.4232 C   0  0  0  0  0  0  0  0  0  0  0  0
   -1.8456    0.9020    1.6888 C   0  0  0  0  0  0  0  0  0  0  0  0
   -2.5565    1.1162    2.8530 C   0  0  0  0  0  0  0  0  0  0  0  0
   -3.4329    0.1852    3.3762 C   0  0  0  0  0  0  0  0  0  0  0  0
   -3.6100   -1.0157    2.7092 C   0  0  0  0  0  0  0  0  0  0  0  0
   -2.8960   -1.2092    1.5566 C   0  0  0  0  0  0  0  0  0  0  0  0
   -1.5420   -0.3738   -2.6787 C   0  0  0  0  0  0  0  0  0  0  0  0
   -2.2041    0.0296   -3.8225 C   0  0  0  0  0  0  0  0  0  0  0  0
   -3.3817    0.7229   -3.6958 C   0  0  0  0  0  0  0  0  0  0  0  0
   -3.8561    0.9887   -2.4294 C   0  0  0  0  0  0  0  0  0  0  0  0
   -3.1826    0.5788   -1.2789 C   0  0  0  0  0  0  0  0  0  0  0  0
    5.0031    0.2941    0.5985 C   0  0  0  0  0  0  0  0  0  0  0  0
    3.8436    0.0073   -1.6802 H   0  0  0  0  0  0  0  0  0  0  0  0
    0.5775   -2.2194   -0.3083 H   0  0  0  0  0  0  0  0  0  0  0  0
    1.1246   -1.3909    2.0142 H   0  0  0  0  0  0  0  0  0  0  0  0
    2.3503   -2.2557    1.0597 H   0  0  0  0  0  0  0  0  0  0  0  0
    3.1652   -0.2879    2.3587 H   0  0  0  0  0  0  0  0  0  0  0  0
    1.6052   -0.5387   -2.1806 H   0  0  0  0  0  0  0  0  0  0  0  0
    2.5182   -1.9251   -1.5295 H   0  0  0  0  0  0  0  0  0  0  0  0
    1.2012    1.3095    1.2004 H   0  0  0  0  0  0  0  0  0  0  0  0
    2.8735    1.9229    1.5527 H   0  0  0  0  0  0  0  0  0  0  0  0
    3.4065    2.0750   -0.6346 H   0  0  0  0  0  0  0  0  0  0  0  0
    1.7320    1.6068   -1.0872 H   0  0  0  0  0  0  0  0  0  0  0  0
   -1.2532   -1.6867   -0.3090 H   0  0  0  0  0  0  0  0  0  0  0  0
   -1.1626    1.6821    1.3215 H   0  0  0  0  0  0  0  0  0  0  0  0
   -2.4300    2.0462    3.3844 H   0  0  0  0  0  0  0  0  0  0  0  0
   -3.9919    0.3474    4.2869 H   0  0  0  0  0  0  0  0  0  0  0  0
   -4.2888   -1.7765    3.0843 H   0  0  0  0  0  0  0  0  0  0  0  0
   -3.0627   -2.1761    1.0536 H   0  0  0  0  0  0  0  0  0  0  0  0
   -0.6028   -0.9379   -2.8103 H   0  0  0  0  0  0  0  0  0  0  0  0
   -1.8063   -0.1944   -4.8027 H   0  0  0  0  0  0  0  0  0  0  0  0
   -3.9408    1.0627   -4.5895 H   0  0  0  0  0  0  0  0  0  0  0  0
   -4.7857    1.5364   -2.3658 H   0  0  0  0  0  0  0  0  0  0  0  0
   -3.6168    0.8244   -0.3189 H   0  0  0  0  0  0  0  0  0  0  0  0
    5.6809   -0.3149    1.2293 H   0  0  0  0  0  0  0  0  0  0  0  0
    5.5120    0.6620   -0.3078 H   0  0  0  0  0  0  0  0  0  0  0  0
    4.7426    1.1890    1.2001 H   0  0  0  0  0  0  0  0  0  0  0  0
  9 11  1  0
  4  5  1  0
  9 12  1  0
  1  5  1  0
 11 13  2  0
  1  6  1  0
 13 14  1  0
  2  6  1  0
 14 15  2  0
  4  7  1  0
 15 16  1  0
  1  8  1  0
 16 17  2  0
 11 17  1  0
  7  8  1  0
 12 18  2  0
  9 10  1  0
 18 19  1  0
  2  3  1  0
 19 20  2  0
  2 10  1  0
 20 21  1  0
  3  4  1  0
 21 22  2  0
 12 22  1  0
  5 23  1  0
  1 24  1  6
  2 25  1  6
  3 26  1  0
  3 27  1  0
  4 28  1  1
  6 29  1  0
  6 30  1  0
  7 31  1  0
  7 32  1  0
  8 33  1  0
  8 34  1  0
  9 35  1  0
 13 36  1  0
 14 37  1  0
 15 38  1  0
 16 39  1  0
 17 40  1  0
 18 41  1  0
 19 42  1  0
 20 43  1  0
 21 44  1  0
 22 45  1  0
 23 46  1  0
 23 47  1  0
 23 48  1  0
M  END

