46504803
     RDKit          3D

 57 60  0  0  1  0  0  0  0  0999 V2000
   -1.4697   -1.7009    0.3414 O   0  0  0  0  0  0  0  0  0  0  0  0
   -7.3633    0.3552   -1.0795 O   0  0  0  0  0  0  0  0  0  0  0  0
   -6.8659   -1.5174    0.9158 O   0  0  0  0  0  0  0  0  0  0  0  0
    3.4985   -0.0263    1.2013 N   0  0  0  0  0  0  0  0  0  0  0  0
    0.8848    0.9791    0.4247 C   0  0  0  0  0  0  0  0  0  0  0  0
   -0.1340    1.0119   -0.6640 C   0  0  0  0  0  0  0  0  0  0  0  0
   -1.5307    0.7308   -0.3220 C   0  0  0  0  0  0  0  0  0  0  0  0
    1.0383   -0.3253    1.0971 C   0  0  0  0  0  0  0  0  0  0  0  0
    2.2234    1.4347   -0.1771 C   0  0  0  0  0  0  0  0  0  0  0  0
    2.3216   -0.4096    1.9202 C   0  0  0  0  0  0  0  0  0  0  0  0
    3.1308    0.2314   -0.1817 C   0  0  0  0  0  0  0  0  0  0  0  0
   -2.4004    0.9032   -1.6258 C   0  0  0  0  0  0  0  0  0  0  0  0
   -1.9645   -0.6178    0.0165 C   0  0  0  0  0  0  0  0  0  0  0  0
   -3.7069    0.4154   -1.1075 C   0  0  0  0  0  0  0  0  0  0  0  0
   -3.4620   -0.5245   -0.1054 C   0  0  0  0  0  0  0  0  0  0  0  0
    4.5492   -1.0236    1.2823 C   0  0  0  0  0  0  0  0  0  0  0  0
   -5.0417    0.6846   -1.4068 C   0  0  0  0  0  0  0  0  0  0  0  0
   -4.4918   -1.1512    0.5504 C   0  0  0  0  0  0  0  0  0  0  0  0
    5.7688   -0.5978    0.5872 C   0  0  0  0  0  0  0  0  0  0  0  0
   -6.0638    0.0486   -0.7408 C   0  0  0  0  0  0  0  0  0  0  0  0
   -5.8298   -0.8763    0.2447 C   0  0  0  0  0  0  0  0  0  0  0  0
    6.6434   -1.5605    0.0975 C   0  0  0  0  0  0  0  0  0  0  0  0
    6.1369    0.7202    0.3796 C   0  0  0  0  0  0  0  0  0  0  0  0
    7.7958   -1.2095   -0.5494 C   0  0  0  0  0  0  0  0  0  0  0  0
    7.2968    1.0832   -0.2716 C   0  0  0  0  0  0  0  0  0  0  0  0
    8.1457    0.1064   -0.7470 C   0  0  0  0  0  0  0  0  0  0  0  0
   -7.6967    1.2970   -2.0841 C   0  0  0  0  0  0  0  0  0  0  0  0
   -6.6323   -2.4652    1.9261 C   0  0  0  0  0  0  0  0  0  0  0  0
    0.6195    1.7840    1.1906 H   0  0  0  0  0  0  0  0  0  0  0  0
    0.2210    0.4410   -1.5738 H   0  0  0  0  0  0  0  0  0  0  0  0
   -0.1215    2.0876   -1.0649 H   0  0  0  0  0  0  0  0  0  0  0  0
   -1.8852    1.5058    0.4061 H   0  0  0  0  0  0  0  0  0  0  0  0
    0.2280   -0.3817    1.8799 H   0  0  0  0  0  0  0  0  0  0  0  0
    1.0672   -1.2122    0.4428 H   0  0  0  0  0  0  0  0  0  0  0  0
    2.6608    2.2375    0.4469 H   0  0  0  0  0  0  0  0  0  0  0  0
    2.0696    1.8513   -1.1935 H   0  0  0  0  0  0  0  0  0  0  0  0
    2.4262   -1.4634    2.2311 H   0  0  0  0  0  0  0  0  0  0  0  0
    2.1685    0.2006    2.8239 H   0  0  0  0  0  0  0  0  0  0  0  0
    2.6144   -0.6284   -0.6352 H   0  0  0  0  0  0  0  0  0  0  0  0
    4.0340    0.3994   -0.8148 H   0  0  0  0  0  0  0  0  0  0  0  0
   -2.4083    1.9544   -1.9188 H   0  0  0  0  0  0  0  0  0  0  0  0
   -1.9410    0.2152   -2.3521 H   0  0  0  0  0  0  0  0  0  0  0  0
    4.1517   -1.9192    0.7206 H   0  0  0  0  0  0  0  0  0  0  0  0
    4.7547   -1.3441    2.3051 H   0  0  0  0  0  0  0  0  0  0  0  0
   -5.2258    1.4128   -2.1826 H   0  0  0  0  0  0  0  0  0  0  0  0
   -4.3096   -1.8866    1.3320 H   0  0  0  0  0  0  0  0  0  0  0  0
    6.3601   -2.6067    0.2574 H   0  0  0  0  0  0  0  0  0  0  0  0
    5.4736    1.4922    0.7526 H   0  0  0  0  0  0  0  0  0  0  0  0
    8.4367   -2.0164   -0.9082 H   0  0  0  0  0  0  0  0  0  0  0  0
    7.5688    2.1214   -0.4252 H   0  0  0  0  0  0  0  0  0  0  0  0
    9.0672    0.3287   -1.2642 H   0  0  0  0  0  0  0  0  0  0  0  0
   -8.7393    1.2385   -2.3933 H   0  0  0  0  0  0  0  0  0  0  0  0
   -7.4507    2.3003   -1.6822 H   0  0  0  0  0  0  0  0  0  0  0  0
   -7.0733    1.1242   -2.9957 H   0  0  0  0  0  0  0  0  0  0  0  0
   -6.1577   -3.3950    1.5234 H   0  0  0  0  0  0  0  0  0  0  0  0
   -7.5235   -2.6640    2.5321 H   0  0  0  0  0  0  0  0  0  0  0  0
   -5.8665   -2.0428    2.6379 H   0  0  0  0  0  0  0  0  0  0  0  0
  1 13  2  0
  2 20  1  0
  2 27  1  0
  3 21  1  0
  3 28  1  0
  4 10  1  0
  4 11  1  0
  4 16  1  0
  5  6  1  0
  5  8  1  0
  5  9  1  0
  6  7  1  0
  7 12  1  0
  7 13  1  0
  8 10  1  0
  9 11  1  0
 12 14  1  0
 13 15  1  0
 14 15  2  0
 14 17  1  0
 15 18  1  0
 16 19  1  0
 17 20  2  0
 18 21  2  0
 19 22  2  0
 19 23  1  0
 20 21  1  0
 22 24  1  0
 23 25  2  0
 24 26  2  0
 25 26  1  0
  5 29  1  0
  6 30  1  0
  6 31  1  0
  7 32  1  0
  8 33  1  0
  8 34  1  0
  9 35  1  0
  9 36  1  0
 10 37  1  0
 10 38  1  0
 11 39  1  0
 11 40  1  0
 12 41  1  0
 12 42  1  0
 16 43  1  0
 16 44  1  0
 17 45  1  0
 18 46  1  0
 22 47  1  0
 23 48  1  0
 24 49  1  0
 25 50  1  0
 26 51  1  0
 27 52  1  0
 27 53  1  0
 27 54  1  0
 28 55  1  0
 28 56  1  0
 28 57  1  0
M  END

