46507771
     RDKit          3D

 26 25  0  0  0  0  0  0  0  0999 V2000
    3.0655    0.8248   -0.1964 C   0  0  0  0  0  0  0  0  0  0  0  0
    3.0161   -0.5100    0.4909 C   0  0  0  0  0  0  0  0  0  0  0  0
    1.6656   -1.1045    0.5330 C   0  0  0  0  0  0  0  0  0  0  0  0
    1.5418   -2.3082    0.3597 O   0  0  0  0  0  0  0  0  0  0  0  0
    0.4180   -0.3017    0.7531 C   0  0  0  0  0  0  0  0  0  0  0  0
   -0.6425   -0.8704   -0.1439 C   0  0  0  0  0  0  0  0  0  0  0  0
   -1.8877   -0.0420   -0.2242 C   0  0  0  0  0  0  0  0  0  0  0  0
   -2.3821    0.4430    1.1062 C   0  0  0  0  0  0  0  0  0  0  0  0
   -1.7830    1.1376   -1.1478 C   0  0  0  0  0  0  0  0  0  0  0  0
   -2.8954   -0.8697   -0.7463 O   0  0  0  0  0  0  0  0  0  0  0  0
    3.2204    1.5961    0.5991 H   0  0  0  0  0  0  0  0  0  0  0  0
    3.9027    0.9064   -0.9278 H   0  0  0  0  0  0  0  0  0  0  0  0
    2.1250    1.0502   -0.7493 H   0  0  0  0  0  0  0  0  0  0  0  0
    3.4033   -0.4521    1.5205 H   0  0  0  0  0  0  0  0  0  0  0  0
    3.7020   -1.1968   -0.0571 H   0  0  0  0  0  0  0  0  0  0  0  0
    0.6070    0.7693    0.5906 H   0  0  0  0  0  0  0  0  0  0  0  0
    0.0725   -0.4652    1.8049 H   0  0  0  0  0  0  0  0  0  0  0  0
   -0.9342   -1.8594    0.2866 H   0  0  0  0  0  0  0  0  0  0  0  0
   -0.2354   -1.0084   -1.1529 H   0  0  0  0  0  0  0  0  0  0  0  0
   -2.4286   -0.3773    1.8662 H   0  0  0  0  0  0  0  0  0  0  0  0
   -1.8511    1.3339    1.4858 H   0  0  0  0  0  0  0  0  0  0  0  0
   -3.4450    0.7617    0.9558 H   0  0  0  0  0  0  0  0  0  0  0  0
   -1.1219    0.8620   -1.9881 H   0  0  0  0  0  0  0  0  0  0  0  0
   -2.7922    1.3261   -1.5945 H   0  0  0  0  0  0  0  0  0  0  0  0
   -1.3726    2.0470   -0.6723 H   0  0  0  0  0  0  0  0  0  0  0  0
   -2.9682   -1.6923   -0.1974 H   0  0  0  0  0  0  0  0  0  0  0  0
  1  2  1  0
  2  3  1  0
  3  4  2  0
  3  5  1  0
  5  6  1  0
  6  7  1  0
  7  8  1  0
  7  9  1  0
  7 10  1  0
  1 11  1  0
  1 12  1  0
  1 13  1  0
  2 14  1  0
  2 15  1  0
  5 16  1  0
  5 17  1  0
  6 18  1  0
  6 19  1  0
  8 20  1  0
  8 21  1  0
  8 22  1  0
  9 23  1  0
  9 24  1  0
  9 25  1  0
 10 26  1  0
M  END

