46506321
     RDKit          3D

 97 99  0  0  1  0  0  0  0  0999 V2000
   -0.3575    2.2659   -0.7663 C   0  0  0  0  0  0  0  0  0  0  0  0
   -1.3956    1.9108    0.2738 C   0  0  0  0  0  0  0  0  0  0  0  0
   -2.6979    1.6622   -0.4382 C   0  0  0  0  0  0  0  0  0  0  0  0
   -0.9597    0.8516    1.1868 C   0  0  0  0  0  0  0  0  0  0  0  0
   -0.6168   -0.4904    0.6571 C   0  0  2  0  0  0  0  0  0  0  0  0
    0.4442   -0.5210   -0.2968 N   0  0  0  0  0  0  0  0  0  0  0  0
    1.7844   -0.8733    0.0186 C   0  0  0  0  0  0  0  0  0  0  0  0
    1.9900   -1.1654    1.2449 O   0  0  0  0  0  0  0  0  0  0  0  0
    2.9012   -0.9237   -0.9148 C   0  0  1  0  0  0  0  0  0  0  0  0
    4.1112   -1.2671   -0.1877 N   0  0  0  0  0  0  0  0  0  0  0  0
    5.2616   -0.4308   -0.1806 C   0  0  0  0  0  0  0  0  0  0  0  0
    5.1706    0.6361   -0.8577 O   0  0  0  0  0  0  0  0  0  0  0  0
    6.4884   -0.7551    0.5570 C   0  0  2  0  0  0  0  0  0  0  0  0
    6.2332   -0.8684    2.0528 C   0  0  0  0  0  0  0  0  0  0  0  0
    7.4560    0.3155    0.3139 N   0  0  0  0  0  0  0  0  0  0  0  0
    8.7296    0.0399   -0.2558 C   0  0  0  0  0  0  0  0  0  0  0  0
    9.0756   -1.1304   -0.5718 O   0  0  0  0  0  0  0  0  0  0  0  0
    9.6384    1.1586   -0.4689 C   0  0  0  0  0  0  0  0  0  0  0  0
   10.8812    1.0960   -0.9725 N   0  0  0  0  0  0  0  0  0  0  0  0
   11.4141    2.2901   -1.0285 O   0  0  0  0  0  0  0  0  0  0  0  0
   10.5793    3.1791   -0.5792 C   0  0  0  0  0  0  0  0  0  0  0  0
   10.7985    4.6637   -0.4717 C   0  0  0  0  0  0  0  0  0  0  0  0
    9.4303    2.5009   -0.2099 C   0  0  0  0  0  0  0  0  0  0  0  0
    2.6782   -1.8662   -2.0815 C   0  0  0  0  0  0  0  0  0  0  0  0
    3.9164   -1.8113   -2.9493 C   0  0  0  0  0  0  0  0  0  0  0  0
    2.4672   -3.2957   -1.6273 C   0  0  0  0  0  0  0  0  0  0  0  0
   -1.8287   -1.1876    0.2174 C   0  0  0  0  0  0  0  0  0  0  0  0
   -1.9113   -1.6810   -0.9394 O   0  0  0  0  0  0  0  0  0  0  0  0
   -2.9645   -1.3380    1.0803 N   0  0  0  0  0  0  0  0  0  0  0  0
   -4.1652   -2.0128    0.6538 C   0  0  1  0  0  0  0  0  0  0  0  0
   -4.7055   -3.0255    1.5872 C   0  0  0  0  0  0  0  0  0  0  0  0
   -3.8809   -4.1893    1.9487 C   0  0  2  0  0  0  0  0  0  0  0  0
   -2.5724   -3.9254    2.6311 C   0  0  0  0  0  0  0  0  0  0  0  0
   -2.0054   -5.3582    2.6741 C   0  0  0  0  0  0  0  0  0  0  0  0
   -2.4531   -5.9050    1.4022 N   0  0  0  0  0  0  0  0  0  0  0  0
   -3.4380   -5.0318    0.8075 C   0  0  0  0  0  0  0  0  0  0  0  0
   -3.7514   -5.0733   -0.3844 O   0  0  0  0  0  0  0  0  0  0  0  0
   -5.2044   -0.9297    0.5220 C   0  0  0  0  0  0  0  0  0  0  0  0
   -5.5738   -0.4012   -0.6150 C   0  0  0  0  0  0  0  0  0  0  0  0
   -6.6051    0.6612   -0.6490 C   0  0  0  0  0  0  0  0  0  0  0  0
   -6.9544    1.1632   -1.7505 O   0  0  0  0  0  0  0  0  0  0  0  0
   -7.2036    1.1267    0.4866 O   0  0  0  0  0  0  0  0  0  0  0  0
   -8.1896    2.1237    0.5844 C   0  0  0  0  0  0  0  0  0  0  0  0
   -7.8086    3.4388    0.0778 C   0  0  0  0  0  0  0  0  0  0  0  0
   -8.2030    3.8288   -1.1807 C   0  0  0  0  0  0  0  0  0  0  0  0
   -7.8545    5.0812   -1.6891 C   0  0  0  0  0  0  0  0  0  0  0  0
   -7.1014    5.8891   -0.8613 C   0  0  0  0  0  0  0  0  0  0  0  0
   -6.6920    5.5367    0.3918 C   0  0  0  0  0  0  0  0  0  0  0  0
   -7.0585    4.2857    0.8595 C   0  0  0  0  0  0  0  0  0  0  0  0
   -0.2780    3.3700   -0.9063 H   0  0  0  0  0  0  0  0  0  0  0  0
   -0.5928    1.8719   -1.7737 H   0  0  0  0  0  0  0  0  0  0  0  0
    0.6478    1.8783   -0.4427 H   0  0  0  0  0  0  0  0  0  0  0  0
   -1.5681    2.8773    0.8478 H   0  0  0  0  0  0  0  0  0  0  0  0
   -3.5189    1.4664    0.2480 H   0  0  0  0  0  0  0  0  0  0  0  0
   -2.6243    0.9468   -1.2821 H   0  0  0  0  0  0  0  0  0  0  0  0
   -2.9466    2.6482   -0.9359 H   0  0  0  0  0  0  0  0  0  0  0  0
   -1.7700    0.7038    1.9616 H   0  0  0  0  0  0  0  0  0  0  0  0
   -0.0929    1.2120    1.8216 H   0  0  0  0  0  0  0  0  0  0  0  0
   -0.2180   -1.0633    1.5606 H   0  0  0  0  0  0  0  0  0  0  0  0
    0.2428   -0.2886   -1.2889 H   0  0  0  0  0  0  0  0  0  0  0  0
    3.0773    0.0788   -1.3856 H   0  0  0  0  0  0  0  0  0  0  0  0
    4.1197   -2.1612    0.3392 H   0  0  0  0  0  0  0  0  0  0  0  0
    6.8836   -1.7221    0.2236 H   0  0  0  0  0  0  0  0  0  0  0  0
    6.8750   -1.6291    2.5308 H   0  0  0  0  0  0  0  0  0  0  0  0
    6.4862    0.1120    2.5397 H   0  0  0  0  0  0  0  0  0  0  0  0
    5.1724   -1.0830    2.2948 H   0  0  0  0  0  0  0  0  0  0  0  0
    7.1523    1.2587    0.5800 H   0  0  0  0  0  0  0  0  0  0  0  0
   10.4736    5.1318   -1.4220 H   0  0  0  0  0  0  0  0  0  0  0  0
   11.8536    4.8892   -0.2090 H   0  0  0  0  0  0  0  0  0  0  0  0
   10.1695    5.0578    0.3532 H   0  0  0  0  0  0  0  0  0  0  0  0
    8.5373    2.9445    0.2041 H   0  0  0  0  0  0  0  0  0  0  0  0
    1.8360   -1.4873   -2.6666 H   0  0  0  0  0  0  0  0  0  0  0  0
    3.8664   -0.9460   -3.6679 H   0  0  0  0  0  0  0  0  0  0  0  0
    4.8382   -1.6731   -2.3648 H   0  0  0  0  0  0  0  0  0  0  0  0
    4.0513   -2.7657   -3.5336 H   0  0  0  0  0  0  0  0  0  0  0  0
    3.4097   -3.7259   -1.2298 H   0  0  0  0  0  0  0  0  0  0  0  0
    1.6419   -3.4150   -0.9202 H   0  0  0  0  0  0  0  0  0  0  0  0
    2.2446   -3.8792   -2.5670 H   0  0  0  0  0  0  0  0  0  0  0  0
   -2.9224   -0.9479    2.0537 H   0  0  0  0  0  0  0  0  0  0  0  0
   -3.9706   -2.4158   -0.3621 H   0  0  0  0  0  0  0  0  0  0  0  0
   -4.9648   -2.5033    2.5656 H   0  0  0  0  0  0  0  0  0  0  0  0
   -5.7057   -3.4159    1.2523 H   0  0  0  0  0  0  0  0  0  0  0  0
   -4.5033   -4.8505    2.6099 H   0  0  0  0  0  0  0  0  0  0  0  0
   -1.8856   -3.3264    2.0463 H   0  0  0  0  0  0  0  0  0  0  0  0
   -2.7767   -3.5358    3.6441 H   0  0  0  0  0  0  0  0  0  0  0  0
   -2.5212   -5.8800    3.4865 H   0  0  0  0  0  0  0  0  0  0  0  0
   -0.8970   -5.3485    2.7512 H   0  0  0  0  0  0  0  0  0  0  0  0
   -2.0788   -6.8055    1.0278 H   0  0  0  0  0  0  0  0  0  0  0  0
   -5.6837   -0.5591    1.4308 H   0  0  0  0  0  0  0  0  0  0  0  0
   -5.1344   -0.7325   -1.5233 H   0  0  0  0  0  0  0  0  0  0  0  0
   -9.1494    1.7465    0.1368 H   0  0  0  0  0  0  0  0  0  0  0  0
   -8.4200    2.2099    1.6902 H   0  0  0  0  0  0  0  0  0  0  0  0
   -8.8005    3.1817   -1.8270 H   0  0  0  0  0  0  0  0  0  0  0  0
   -8.1769    5.3540   -2.6710 H   0  0  0  0  0  0  0  0  0  0  0  0
   -6.8164    6.8684   -1.2299 H   0  0  0  0  0  0  0  0  0  0  0  0
   -6.1087    6.1435    1.0531 H   0  0  0  0  0  0  0  0  0  0  0  0
   -6.7503    3.9612    1.8613 H   0  0  0  0  0  0  0  0  0  0  0  0
  1  2  1  0
  2  3  1  0
  2  4  1  0
  4  5  1  0
  5  6  1  0
  6  7  1  0
  7  8  2  0
  7  9  1  0
  9 10  1  0
 10 11  1  0
 11 12  2  0
 11 13  1  0
 13 14  1  0
 13 15  1  0
 15 16  1  0
 16 17  2  0
 16 18  1  0
 18 19  2  0
 19 20  1  0
 20 21  1  0
 21 22  1  0
 21 23  2  0
 18 23  1  0
  9 24  1  0
 24 25  1  0
 24 26  1  0
  5 27  1  0
 27 28  2  0
 27 29  1  0
 30 29  1  0
 30 31  1  0
 32 31  1  0
 32 33  1  0
 33 34  1  0
 34 35  1  0
 35 36  1  0
 32 36  1  0
 36 37  2  0
 30 38  1  0
 38 39  2  0
 39 40  1  0
 40 41  2  0
 40 42  1  0
 42 43  1  0
 43 44  1  0
 44 45  2  0
 45 46  1  0
 46 47  2  0
 47 48  1  0
 48 49  2  0
 44 49  1  0
  1 50  1  0
  1 51  1  0
  1 52  1  0
  2 53  1  0
  3 54  1  0
  3 55  1  0
  3 56  1  0
  4 57  1  0
  4 58  1  0
  5 59  1  1
  6 60  1  0
  9 61  1  6
 10 62  1  0
 13 63  1  6
 14 64  1  0
 14 65  1  0
 14 66  1  0
 15 67  1  0
 22 68  1  0
 22 69  1  0
 22 70  1  0
 23 71  1  0
 24 72  1  0
 25 73  1  0
 25 74  1  0
 25 75  1  0
 26 76  1  0
 26 77  1  0
 26 78  1  0
 29 79  1  0
 30 80  1  6
 31 81  1  0
 31 82  1  0
 32 83  1  1
 33 84  1  0
 33 85  1  0
 34 86  1  0
 34 87  1  0
 35 88  1  0
 38 89  1  0
 39 90  1  0
 43 91  1  0
 43 92  1  0
 45 93  1  0
 46 94  1  0
 47 95  1  0
 48 96  1  0
 49 97  1  0
M  END

