46509021
     RDKit          3D

 28 30  0  0  0  0  0  0  0  0999 V2000
    5.3881   -0.2843    1.8943 O   0  0  0  0  0  0  0  0  0  0  0  0
    4.1122    0.2363    1.9796 C   0  0  0  0  0  0  0  0  0  0  0  0
    3.2915   -0.3125    0.8325 C   0  0  0  0  0  0  0  0  0  0  0  0
    1.9332    0.1944    0.8592 N   0  0  0  0  0  0  0  0  0  0  0  0
    1.0482   -0.2387   -0.1615 C   0  0  0  0  0  0  0  0  0  0  0  0
    1.4348   -1.0968   -1.1399 N   0  0  0  0  0  0  0  0  0  0  0  0
    0.6010   -1.5054   -2.1024 C   0  0  0  0  0  0  0  0  0  0  0  0
   -0.6658   -1.0878   -2.1526 N   0  0  0  0  0  0  0  0  0  0  0  0
   -1.1086   -0.2332   -1.2065 C   0  0  0  0  0  0  0  0  0  0  0  0
   -0.2631    0.1958   -0.2105 C   0  0  0  0  0  0  0  0  0  0  0  0
   -0.9289    1.0390    0.6114 N   0  0  0  0  0  0  0  0  0  0  0  0
   -2.1984    1.1313    0.1175 C   0  0  0  0  0  0  0  0  0  0  0  0
   -3.3101    1.8350    0.5321 C   0  0  0  0  0  0  0  0  0  0  0  0
   -4.5016    1.7565   -0.1559 C   0  0  0  0  0  0  0  0  0  0  0  0
   -4.5522    0.9521   -1.2744 C   0  0  0  0  0  0  0  0  0  0  0  0
   -3.4410    0.2520   -1.6845 C   0  0  0  0  0  0  0  0  0  0  0  0
   -2.3008    0.3605   -0.9807 N   0  0  0  0  0  0  0  0  0  0  0  0
    5.7122   -0.5323    2.8023 H   0  0  0  0  0  0  0  0  0  0  0  0
    3.6258   -0.0759    2.9178 H   0  0  0  0  0  0  0  0  0  0  0  0
    4.1661    1.3318    1.9154 H   0  0  0  0  0  0  0  0  0  0  0  0
    3.2248   -1.4103    0.8554 H   0  0  0  0  0  0  0  0  0  0  0  0
    3.7443   -0.0500   -0.1555 H   0  0  0  0  0  0  0  0  0  0  0  0
    1.5768    0.8513    1.5785 H   0  0  0  0  0  0  0  0  0  0  0  0
    0.9598   -2.1823   -2.8479 H   0  0  0  0  0  0  0  0  0  0  0  0
   -3.2392    2.4663    1.4252 H   0  0  0  0  0  0  0  0  0  0  0  0
   -5.3886    2.3220    0.1804 H   0  0  0  0  0  0  0  0  0  0  0  0
   -5.4618    0.8511   -1.8556 H   0  0  0  0  0  0  0  0  0  0  0  0
   -3.4586   -0.3956   -2.5737 H   0  0  0  0  0  0  0  0  0  0  0  0
  1  2  1  0
  2  3  1  0
  3  4  1  0
  4  5  1  0
  5  6  2  0
  6  7  1  0
  7  8  2  0
  8  9  1  0
  9 10  2  0
  5 10  1  0
 10 11  1  0
 11 12  2  0
 12 13  1  0
 13 14  2  0
 14 15  1  0
 15 16  2  0
 16 17  1  0
  9 17  1  0
 12 17  1  0
  1 18  1  0
  2 19  1  0
  2 20  1  0
  3 21  1  0
  3 22  1  0
  4 23  1  0
  7 24  1  0
 13 25  1  0
 14 26  1  0
 15 27  1  0
 16 28  1  0
M  END

