46508447
     RDKit          3D

 20 20  0  0  0  0  0  0  0  0999 V2000
   -2.0229    1.4737   -0.2551 C   0  0  0  0  0  0  0  0  0  0  0  0
   -0.6962    0.8077   -0.1774 C   0  0  0  0  0  0  0  0  0  0  0  0
    0.4471    1.5034   -0.5038 C   0  0  0  0  0  0  0  0  0  0  0  0
    1.6846    0.8919   -0.4344 C   0  0  0  0  0  0  0  0  0  0  0  0
    1.8327   -0.4285   -0.0397 C   0  0  0  0  0  0  0  0  0  0  0  0
    3.0844   -1.0821    0.0414 N   0  0  0  0  0  0  0  0  0  0  0  0
    0.6810   -1.1159    0.2849 C   0  0  0  0  0  0  0  0  0  0  0  0
   -0.5722   -0.5070    0.2178 C   0  0  0  0  0  0  0  0  0  0  0  0
   -1.8007   -1.2452    0.5656 C   0  0  0  0  0  0  0  0  0  0  0  0
   -2.8294    0.7971   -0.5697 H   0  0  0  0  0  0  0  0  0  0  0  0
   -2.3003    1.9493    0.7210 H   0  0  0  0  0  0  0  0  0  0  0  0
   -1.9395    2.2912   -1.0148 H   0  0  0  0  0  0  0  0  0  0  0  0
    0.3206    2.5380   -0.8120 H   0  0  0  0  0  0  0  0  0  0  0  0
    2.5612    1.4425   -0.6900 H   0  0  0  0  0  0  0  0  0  0  0  0
    3.1512   -2.0650   -0.2807 H   0  0  0  0  0  0  0  0  0  0  0  0
    3.9453   -0.6357    0.4056 H   0  0  0  0  0  0  0  0  0  0  0  0
    0.7386   -2.1586    0.6023 H   0  0  0  0  0  0  0  0  0  0  0  0
   -2.5217   -1.1976   -0.2729 H   0  0  0  0  0  0  0  0  0  0  0  0
   -1.5303   -2.3251    0.6745 H   0  0  0  0  0  0  0  0  0  0  0  0
   -2.2335   -0.9341    1.5374 H   0  0  0  0  0  0  0  0  0  0  0  0
  1  2  1  0
  2  3  2  0
  3  4  1  0
  4  5  2  0
  5  6  1  0
  5  7  1  0
  7  8  2  0
  2  8  1  0
  8  9  1  0
  1 10  1  0
  1 11  1  0
  1 12  1  0
  3 13  1  0
  4 14  1  0
  6 15  1  0
  6 16  1  0
  7 17  1  0
  9 18  1  0
  9 19  1  0
  9 20  1  0
M  END

