46507282
     RDKit          3D

 68 72  0  0  1  0  0  0  0  0999 V2000
   -1.6283    0.4313    0.7598 O   0  0  0  0  0  0  0  0  0  0  0  0
   -3.7037   -0.1738    1.5179 O   0  0  0  0  0  0  0  0  0  0  0  0
   -0.9219    2.9561    1.4170 O   0  0  0  0  0  0  0  0  0  0  0  0
   -5.4860   -3.0278    2.1849 O   0  0  0  0  0  0  0  0  0  0  0  0
    0.0200   -1.2739   -0.8351 O   0  0  0  0  0  0  0  0  0  0  0  0
    2.6886    3.5640   -0.9818 O   0  0  0  0  0  0  0  0  0  0  0  0
   -2.3694    5.1949   -0.8106 O   0  0  0  0  0  0  0  0  0  0  0  0
   -1.6489    4.6385    2.5956 O   0  0  0  0  0  0  0  0  0  0  0  0
    2.3262   -2.4389   -1.2150 O   0  0  0  0  0  0  0  0  0  0  0  0
    4.9121    2.2462   -1.3654 O   0  0  0  0  0  0  0  0  0  0  0  0
    4.2999   -3.6867   -1.5314 O   0  0  0  0  0  0  0  0  0  0  0  0
   -2.8392   -3.8808    2.6067 N   0  0  0  0  0  0  0  0  0  0  0  0
   -1.3758    1.0086   -0.4499 C   0  0  1  0  0  0  0  0  0  0  0  0
   -1.2360    3.3755    0.1288 C   0  0  2  0  0  0  0  0  0  0  0  0
   -2.0877    2.3322   -0.6135 C   0  0  0  0  0  0  0  0  0  0  0  0
    0.0428    3.5678   -0.6114 C   0  0  0  0  0  0  0  0  0  0  0  0
    0.0648    1.0906   -0.7107 C   0  0  0  0  0  0  0  0  0  0  0  0
    0.7373    2.2554   -0.7538 C   0  0  0  0  0  0  0  0  0  0  0  0
   -2.5093   -0.5804    0.8736 C   0  0  2  0  0  0  0  0  0  0  0  0
   -2.0390   -1.8784    1.4513 C   0  0  0  0  0  0  0  0  0  0  0  0
   -3.1763   -2.5147    2.2232 C   0  0  1  0  0  0  0  0  0  0  0  0
   -4.4488   -2.4418    1.4540 C   0  0  2  0  0  0  0  0  0  0  0  0
   -4.7561   -0.9940    1.1508 C   0  0  2  0  0  0  0  0  0  0  0  0
    0.7712   -0.1483   -0.8830 C   0  0  0  0  0  0  0  0  0  0  0  0
   -1.9553    4.6752    0.2310 C   0  0  0  0  0  0  0  0  0  0  0  0
    2.1393    2.3150   -0.9627 C   0  0  0  0  0  0  0  0  0  0  0  0
    2.1164   -0.0721   -1.0814 C   0  0  0  0  0  0  0  0  0  0  0  0
    2.8128    1.1354   -1.1243 C   0  0  0  0  0  0  0  0  0  0  0  0
   -5.1177   -0.8423   -0.3322 C   0  0  0  0  0  0  0  0  0  0  0  0
   -2.1719    5.3313    1.5285 C   0  0  0  0  0  0  0  0  0  0  0  0
    2.8824   -1.3230   -1.2414 C   0  0  0  0  0  0  0  0  0  0  0  0
    4.2576    1.1597   -1.3231 C   0  0  0  0  0  0  0  0  0  0  0  0
    4.3374   -1.3010   -1.4402 C   0  0  0  0  0  0  0  0  0  0  0  0
    4.9880   -0.0969   -1.4772 C   0  0  0  0  0  0  0  0  0  0  0  0
    5.0040   -2.5031   -1.5768 C   0  0  0  0  0  0  0  0  0  0  0  0
    6.3582   -0.1074   -1.6605 C   0  0  0  0  0  0  0  0  0  0  0  0
    6.3705   -2.5007   -1.7575 C   0  0  0  0  0  0  0  0  0  0  0  0
    7.0451   -1.3062   -1.8000 C   0  0  0  0  0  0  0  0  0  0  0  0
    4.9847   -4.9144   -1.6714 C   0  0  0  0  0  0  0  0  0  0  0  0
   -1.7020    2.4902    1.7899 H   0  0  0  0  0  0  0  0  0  0  0  0
   -6.1204   -2.3328    2.5576 H   0  0  0  0  0  0  0  0  0  0  0  0
    0.2456   -2.2061   -0.9229 H   0  0  0  0  0  0  0  0  0  0  0  0
    3.5710    3.9235   -1.0967 H   0  0  0  0  0  0  0  0  0  0  0  0
   -0.7135    4.9118    2.7191 H   0  0  0  0  0  0  0  0  0  0  0  0
   -2.5196   -3.8702    3.5983 H   0  0  0  0  0  0  0  0  0  0  0  0
   -3.6386   -4.5286    2.5414 H   0  0  0  0  0  0  0  0  0  0  0  0
   -1.8621    0.3691   -1.2346 H   0  0  0  0  0  0  0  0  0  0  0  0
   -2.1177    2.6583   -1.6571 H   0  0  0  0  0  0  0  0  0  0  0  0
   -3.0407    2.2994   -0.0921 H   0  0  0  0  0  0  0  0  0  0  0  0
    0.6692    4.3015   -0.0630 H   0  0  0  0  0  0  0  0  0  0  0  0
   -0.1355    3.9772   -1.6411 H   0  0  0  0  0  0  0  0  0  0  0  0
   -2.8941   -0.8140   -0.1667 H   0  0  0  0  0  0  0  0  0  0  0  0
   -1.1200   -1.7921    2.0525 H   0  0  0  0  0  0  0  0  0  0  0  0
   -1.7878   -2.6325    0.6520 H   0  0  0  0  0  0  0  0  0  0  0  0
   -3.3014   -1.9195    3.1511 H   0  0  0  0  0  0  0  0  0  0  0  0
   -4.3834   -2.9902    0.4909 H   0  0  0  0  0  0  0  0  0  0  0  0
   -5.6449   -0.6181    1.7271 H   0  0  0  0  0  0  0  0  0  0  0  0
   -6.2364   -0.9565   -0.4094 H   0  0  0  0  0  0  0  0  0  0  0  0
   -4.7842    0.1223   -0.7427 H   0  0  0  0  0  0  0  0  0  0  0  0
   -4.6681   -1.7223   -0.8431 H   0  0  0  0  0  0  0  0  0  0  0  0
   -1.6960    6.3403    1.5235 H   0  0  0  0  0  0  0  0  0  0  0  0
   -3.2728    5.4928    1.6921 H   0  0  0  0  0  0  0  0  0  0  0  0
    6.8981    0.8280   -1.6940 H   0  0  0  0  0  0  0  0  0  0  0  0
    6.8876   -3.4410   -1.8646 H   0  0  0  0  0  0  0  0  0  0  0  0
    8.1148   -1.3334   -1.9426 H   0  0  0  0  0  0  0  0  0  0  0  0
    4.3312   -5.7915   -1.4328 H   0  0  0  0  0  0  0  0  0  0  0  0
    5.8622   -4.9535   -0.9880 H   0  0  0  0  0  0  0  0  0  0  0  0
    5.3717   -5.0830   -2.6989 H   0  0  0  0  0  0  0  0  0  0  0  0
 13  1  1  0
 19  1  1  0
  2 19  1  0
  2 23  1  0
 14  3  1  1
 22  4  1  0
  5 24  1  0
  6 26  1  0
  7 25  2  0
  8 30  1  0
  9 31  2  0
 10 32  2  0
 11 35  1  0
 11 39  1  0
 21 12  1  0
 13 15  1  0
 13 17  1  0
 14 15  1  0
 14 16  1  0
 14 25  1  0
 16 18  1  0
 17 18  2  0
 17 24  1  0
 18 26  1  0
 19 20  1  0
 20 21  1  0
 21 22  1  0
 22 23  1  0
 23 29  1  0
 24 27  2  0
 25 30  1  0
 26 28  2  0
 27 28  1  0
 27 31  1  0
 28 32  1  0
 31 33  1  0
 32 34  1  0
 33 34  2  0
 33 35  1  0
 34 36  1  0
 35 37  2  0
 36 38  2  0
 37 38  1  0
  3 40  1  0
  4 41  1  0
  5 42  1  0
  6 43  1  0
  8 44  1  0
 12 45  1  0
 12 46  1  0
 13 47  1  6
 15 48  1  0
 15 49  1  0
 16 50  1  0
 16 51  1  0
 19 52  1  6
 20 53  1  0
 20 54  1  0
 21 55  1  1
 22 56  1  6
 23 57  1  1
 29 58  1  0
 29 59  1  0
 29 60  1  0
 30 61  1  0
 30 62  1  0
 36 63  1  0
 37 64  1  0
 38 65  1  0
 39 66  1  0
 39 67  1  0
 39 68  1  0
M  END

