46507234
     RDKit          3D

 96 99  0  0  1  0  0  0  0  0999 V2000
  -11.2356   -0.8258    1.1078 O   0  0  0  0  0  0  0  0  0  0  0  0
  -15.1148   -0.5953    0.3565 O   0  0  0  0  0  0  0  0  0  0  0  0
   -5.2097    0.6706   -1.0326 O   0  0  0  0  0  0  0  0  0  0  0  0
   -7.2852    1.1694   -2.0733 O   0  0  0  0  0  0  0  0  0  0  0  0
    9.1574   -2.7277    0.6437 O   0  0  0  0  0  0  0  0  0  0  0  0
   11.7091    0.4760   -0.7538 O   0  0  0  0  0  0  0  0  0  0  0  0
   13.9263    0.5702   -1.1625 O   0  0  0  0  0  0  0  0  0  0  0  0
  -11.0106   -0.1481   -0.0840 C   0  0  2  0  0  0  0  0  0  0  0  0
  -11.6588    0.5393    0.9158 C   0  0  1  0  0  0  0  0  0  0  0  0
  -11.8120   -0.5786   -1.2981 C   0  0  0  0  0  0  0  0  0  0  0  0
  -13.1365    0.7469    0.7127 C   0  0  0  0  0  0  0  0  0  0  0  0
   -9.5770    0.1185   -0.4299 C   0  0  0  0  0  0  0  0  0  0  0  0
  -13.1718   -1.0999   -0.9748 C   0  0  0  0  0  0  0  0  0  0  0  0
  -13.7396   -0.5929    0.3261 C   0  0  2  0  0  0  0  0  0  0  0  0
  -10.9252    1.4870    1.8559 C   0  0  0  0  0  0  0  0  0  0  0  0
  -11.0175   -1.7250   -1.9350 C   0  0  0  0  0  0  0  0  0  0  0  0
  -11.8372    0.5338   -2.3453 C   0  0  0  0  0  0  0  0  0  0  0  0
   -8.5833   -0.2642    0.3173 C   0  0  0  0  0  0  0  0  0  0  0  0
   -7.1648   -0.0258    0.0192 C   0  0  0  0  0  0  0  0  0  0  0  0
   -6.5961    0.6613   -1.1309 C   0  0  0  0  0  0  0  0  0  0  0  0
   -6.1311   -0.3972    0.7519 C   0  0  0  0  0  0  0  0  0  0  0  0
   -4.8748    0.0182    0.1319 C   0  0  0  0  0  0  0  0  0  0  0  0
    9.3409   -0.4088    0.6654 C   0  0  0  0  0  0  0  0  0  0  0  0
    9.7311   -1.6166   -0.0176 C   0  0  1  0  0  0  0  0  0  0  0  0
    9.9369    0.1856    1.8422 C   0  0  0  0  0  0  0  0  0  0  0  0
   11.8897   -0.3917    0.3433 C   0  0  2  0  0  0  0  0  0  0  0  0
   11.2441   -1.7071    0.0532 C   0  0  0  0  0  0  0  0  0  0  0  0
   11.4284    0.2826    1.5814 C   0  0  0  0  0  0  0  0  0  0  0  0
   -3.6537   -0.1695    0.5600 C   0  0  0  0  0  0  0  0  0  0  0  0
    8.3238    0.2166    0.1593 C   0  0  0  0  0  0  0  0  0  0  0  0
    9.3045   -1.6944   -1.4422 C   0  0  0  0  0  0  0  0  0  0  0  0
    9.7039   -0.7145    3.0592 C   0  0  0  0  0  0  0  0  0  0  0  0
    9.3805    1.5585    2.1613 C   0  0  0  0  0  0  0  0  0  0  0  0
    7.2445    0.8170   -0.2524 C   0  0  0  0  0  0  0  0  0  0  0  0
   -2.4594    0.2828   -0.1296 C   0  0  0  0  0  0  0  0  0  0  0  0
    6.0156    0.4243    0.3312 C   0  0  0  0  0  0  0  0  0  0  0  0
   12.7644    0.9589   -1.5143 C   0  0  0  0  0  0  0  0  0  0  0  0
   -1.2619    0.0560    0.3634 C   0  0  0  0  0  0  0  0  0  0  0  0
    4.8363    0.6775   -0.2145 C   0  0  0  0  0  0  0  0  0  0  0  0
   -2.6019    1.0081   -1.4019 C   0  0  0  0  0  0  0  0  0  0  0  0
    5.9810   -0.3024    1.6255 C   0  0  0  0  0  0  0  0  0  0  0  0
   12.6005    1.8699   -2.6701 C   0  0  0  0  0  0  0  0  0  0  0  0
   -0.0058    0.4568   -0.2314 C   0  0  0  0  0  0  0  0  0  0  0  0
    3.5630    0.2843    0.3651 C   0  0  0  0  0  0  0  0  0  0  0  0
    1.1409    0.1658    0.3699 C   0  0  0  0  0  0  0  0  0  0  0  0
    2.4316    0.5599   -0.2103 C   0  0  0  0  0  0  0  0  0  0  0  0
  -15.4004   -1.5508    0.3693 H   0  0  0  0  0  0  0  0  0  0  0  0
    9.8049   -3.4756    0.6035 H   0  0  0  0  0  0  0  0  0  0  0  0
  -13.6533    1.0935    1.6324 H   0  0  0  0  0  0  0  0  0  0  0  0
  -13.3534    1.5233   -0.0603 H   0  0  0  0  0  0  0  0  0  0  0  0
   -9.3852    0.6526   -1.3423 H   0  0  0  0  0  0  0  0  0  0  0  0
  -13.2178   -2.2056   -1.0526 H   0  0  0  0  0  0  0  0  0  0  0  0
  -13.8728   -0.7292   -1.7789 H   0  0  0  0  0  0  0  0  0  0  0  0
  -13.3793   -1.3119    1.1196 H   0  0  0  0  0  0  0  0  0  0  0  0
  -10.8387    1.0178    2.8484 H   0  0  0  0  0  0  0  0  0  0  0  0
  -11.4521    2.4621    1.8617 H   0  0  0  0  0  0  0  0  0  0  0  0
   -9.9118    1.6645    1.4573 H   0  0  0  0  0  0  0  0  0  0  0  0
  -10.6296   -2.4141   -1.1645 H   0  0  0  0  0  0  0  0  0  0  0  0
  -10.1508   -1.2725   -2.4559 H   0  0  0  0  0  0  0  0  0  0  0  0
  -11.6219   -2.2493   -2.6952 H   0  0  0  0  0  0  0  0  0  0  0  0
  -10.9285    0.4537   -3.0080 H   0  0  0  0  0  0  0  0  0  0  0  0
  -11.7569    1.5151   -1.8500 H   0  0  0  0  0  0  0  0  0  0  0  0
  -12.7329    0.5022   -2.9746 H   0  0  0  0  0  0  0  0  0  0  0  0
   -8.8287   -0.7995    1.2283 H   0  0  0  0  0  0  0  0  0  0  0  0
   -6.2258   -0.9353    1.6815 H   0  0  0  0  0  0  0  0  0  0  0  0
   12.9853   -0.5712    0.4353 H   0  0  0  0  0  0  0  0  0  0  0  0
   11.4800   -2.3888    0.8995 H   0  0  0  0  0  0  0  0  0  0  0  0
   11.5924   -2.1929   -0.8552 H   0  0  0  0  0  0  0  0  0  0  0  0
   11.6967    1.3584    1.6300 H   0  0  0  0  0  0  0  0  0  0  0  0
   11.9442   -0.1882    2.4363 H   0  0  0  0  0  0  0  0  0  0  0  0
   -3.5553   -0.7065    1.5046 H   0  0  0  0  0  0  0  0  0  0  0  0
    9.9888   -2.4092   -1.9761 H   0  0  0  0  0  0  0  0  0  0  0  0
    8.2950   -2.1654   -1.4834 H   0  0  0  0  0  0  0  0  0  0  0  0
    9.3103   -0.7167   -1.9663 H   0  0  0  0  0  0  0  0  0  0  0  0
    9.1080   -1.6054    2.7502 H   0  0  0  0  0  0  0  0  0  0  0  0
    9.0870   -0.1788    3.8076 H   0  0  0  0  0  0  0  0  0  0  0  0
   10.6723   -1.0039    3.5114 H   0  0  0  0  0  0  0  0  0  0  0  0
    8.6446    1.4662    2.9768 H   0  0  0  0  0  0  0  0  0  0  0  0
    8.9136    1.9811    1.2474 H   0  0  0  0  0  0  0  0  0  0  0  0
   10.1924    2.2341    2.5326 H   0  0  0  0  0  0  0  0  0  0  0  0
    7.4429    1.5542   -1.0056 H   0  0  0  0  0  0  0  0  0  0  0  0
   -1.2660   -0.4951    1.3224 H   0  0  0  0  0  0  0  0  0  0  0  0
    4.8207    1.2107   -1.1492 H   0  0  0  0  0  0  0  0  0  0  0  0
   -1.6780    1.3659   -1.8493 H   0  0  0  0  0  0  0  0  0  0  0  0
   -3.1982    0.3833   -2.1096 H   0  0  0  0  0  0  0  0  0  0  0  0
   -3.2740    1.8923   -1.1643 H   0  0  0  0  0  0  0  0  0  0  0  0
    6.9788   -0.2278    2.1506 H   0  0  0  0  0  0  0  0  0  0  0  0
    5.2680    0.1907    2.3243 H   0  0  0  0  0  0  0  0  0  0  0  0
    5.8029   -1.3869    1.5148 H   0  0  0  0  0  0  0  0  0  0  0  0
   12.6733    2.9245   -2.2797 H   0  0  0  0  0  0  0  0  0  0  0  0
   13.3454    1.6926   -3.4732 H   0  0  0  0  0  0  0  0  0  0  0  0
   11.5622    1.7664   -3.0469 H   0  0  0  0  0  0  0  0  0  0  0  0
    0.0514    0.9855   -1.1483 H   0  0  0  0  0  0  0  0  0  0  0  0
    3.5743   -0.2513    1.2973 H   0  0  0  0  0  0  0  0  0  0  0  0
    1.0878   -0.3730    1.3018 H   0  0  0  0  0  0  0  0  0  0  0  0
    2.3982    1.1040   -1.1617 H   0  0  0  0  0  0  0  0  0  0  0  0
  1  8  1  0
  1  9  1  0
 14  2  1  0
  3 20  1  0
  3 22  1  0
  4 20  2  0
 24  5  1  1
 26  6  1  0
  6 37  1  0
  7 37  2  0
  8  9  1  0
  8 10  1  0
  8 12  1  6
  9 11  1  0
  9 15  1  1
 10 13  1  0
 10 16  1  0
 10 17  1  0
 11 14  1  0
 12 18  2  0
 13 14  1  0
 18 19  1  0
 19 20  1  0
 19 21  2  0
 21 22  1  0
 22 29  2  0
 23 24  1  0
 23 25  1  0
 23 30  2  0
 24 27  1  0
 24 31  1  0
 25 28  1  0
 25 32  1  0
 25 33  1  0
 26 27  1  0
 26 28  1  0
 29 35  1  0
 30 34  2  0
 34 36  1  0
 35 38  2  0
 35 40  1  0
 36 39  2  0
 36 41  1  0
 37 42  1  0
 38 43  1  0
 39 44  1  0
 43 45  2  0
 44 46  2  0
 45 46  1  0
  2 47  1  0
  5 48  1  0
 11 49  1  0
 11 50  1  0
 12 51  1  0
 13 52  1  0
 13 53  1  0
 14 54  1  1
 15 55  1  0
 15 56  1  0
 15 57  1  0
 16 58  1  0
 16 59  1  0
 16 60  1  0
 17 61  1  0
 17 62  1  0
 17 63  1  0
 18 64  1  0
 21 65  1  0
 26 66  1  1
 27 67  1  0
 27 68  1  0
 28 69  1  0
 28 70  1  0
 29 71  1  0
 31 72  1  0
 31 73  1  0
 31 74  1  0
 32 75  1  0
 32 76  1  0
 32 77  1  0
 33 78  1  0
 33 79  1  0
 33 80  1  0
 34 81  1  0
 38 82  1  0
 39 83  1  0
 40 84  1  0
 40 85  1  0
 40 86  1  0
 41 87  1  0
 41 88  1  0
 41 89  1  0
 42 90  1  0
 42 91  1  0
 42 92  1  0
 43 93  1  0
 44 94  1  0
 45 95  1  0
 46 96  1  0
M  END

