46505195
     RDKit          3D

 21 20  0  0  1  0  0  0  0  0999 V2000
   -0.0363    0.0739    0.0136 C   0  0  0  0  0  0  0  0  0  0  0  0
    0.9447   -0.3782   -1.0062 C   0  0  0  0  0  0  0  0  0  0  0  0
   -3.1527   -0.0684   -1.3217 O   0  0  0  0  0  0  0  0  0  0  0  0
    1.9966   -1.3083   -0.4153 C   0  0  0  0  0  0  0  0  0  0  0  0
   -1.8585    0.3499   -1.5526 C   0  0  0  0  0  0  0  0  0  0  0  0
   -1.3231    0.1636   -2.6664 O   0  0  0  0  0  0  0  0  0  0  0  0
   -1.0915    1.0202   -0.4919 C   0  0  1  0  0  0  0  0  0  0  0  0
   -1.9980    1.3138    0.6222 N   0  0  0  0  0  0  0  0  0  0  0  0
    2.7599   -0.6252    0.6664 C   0  0  0  0  0  0  0  0  0  0  0  0
    3.6319   -1.2805    1.2122 O   0  0  0  0  0  0  0  0  0  0  0  0
   -0.6190   -0.8082    0.4213 H   0  0  0  0  0  0  0  0  0  0  0  0
    0.4719    0.4924    0.9086 H   0  0  0  0  0  0  0  0  0  0  0  0
    0.4260   -0.9573   -1.8238 H   0  0  0  0  0  0  0  0  0  0  0  0
    1.4684    0.4529   -1.4854 H   0  0  0  0  0  0  0  0  0  0  0  0
   -3.9106    0.5929   -1.1237 H   0  0  0  0  0  0  0  0  0  0  0  0
    1.5127   -2.2189    0.0057 H   0  0  0  0  0  0  0  0  0  0  0  0
    2.6623   -1.6569   -1.2309 H   0  0  0  0  0  0  0  0  0  0  0  0
   -0.5985    1.9499   -0.8251 H   0  0  0  0  0  0  0  0  0  0  0  0
   -2.3005    0.4637    1.1060 H   0  0  0  0  0  0  0  0  0  0  0  0
   -1.5480    2.0186    1.2776 H   0  0  0  0  0  0  0  0  0  0  0  0
    2.5622    0.4102    0.9689 H   0  0  0  0  0  0  0  0  0  0  0  0
  1  7  1  0
  5  7  1  0
  1  2  1  0
  3  5  1  0
  2  4  1  0
  4  9  1  0
  5  6  2  0
  7  8  1  0
  9 10  2  0
  1 11  1  0
  1 12  1  0
  2 13  1  0
  2 14  1  0
  3 15  1  0
  4 16  1  0
  4 17  1  0
  7 18  1  6
  8 19  1  0
  8 20  1  0
  9 21  1  0
M  END

