46507636
     RDKit          3D

 20 19  0  0  0  0  0  0  0  0999 V2000
    3.3351    0.4748    0.1387 O   0  0  0  0  0  0  0  0  0  0  0  0
   -0.8328    0.6235   -0.5354 N   0  0  0  0  0  4  0  0  0  0  0  0
   -1.9353   -0.3509    1.2729 N   0  0  0  0  0  0  0  0  0  0  0  0
   -3.0987    0.2342   -0.8332 N   0  0  0  0  0  0  0  0  0  0  0  0
    1.2356   -0.5347   -0.3555 C   0  0  0  0  0  0  0  0  0  0  0  0
    0.4345    0.6075    0.2127 C   0  0  0  0  0  0  0  0  0  0  0  0
    2.5734   -0.6941    0.3029 C   0  0  0  0  0  0  0  0  0  0  0  0
   -1.9191    0.1837   -0.0481 C   0  0  0  0  0  0  0  0  0  0  0  0
    3.3147    0.6639   -0.8384 H   0  0  0  0  0  0  0  0  0  0  0  0
   -0.7815    1.0161   -1.4835 H   0  0  0  0  0  0  0  0  0  0  0  0
   -1.4914   -1.2723    1.4773 H   0  0  0  0  0  0  0  0  0  0  0  0
   -2.3984    0.2030    2.0121 H   0  0  0  0  0  0  0  0  0  0  0  0
   -3.4198   -0.5862   -1.4150 H   0  0  0  0  0  0  0  0  0  0  0  0
   -3.6467    1.1230   -0.8160 H   0  0  0  0  0  0  0  0  0  0  0  0
    1.3363   -0.4068   -1.4463 H   0  0  0  0  0  0  0  0  0  0  0  0
    0.6559   -1.4689   -0.1438 H   0  0  0  0  0  0  0  0  0  0  0  0
    0.2199    0.4392    1.2918 H   0  0  0  0  0  0  0  0  0  0  0  0
    0.9069    1.5906    0.0411 H   0  0  0  0  0  0  0  0  0  0  0  0
    2.4160   -0.9367    1.3708 H   0  0  0  0  0  0  0  0  0  0  0  0
    3.0953   -1.5307   -0.2051 H   0  0  0  0  0  0  0  0  0  0  0  0
  1  7  1  0
  2  6  1  0
  2  8  2  3
  3  8  1  0
  4  8  1  0
  5  6  1  0
  5  7  1  0
  1  9  1  0
  2 10  1  0
  3 11  1  0
  3 12  1  0
  4 13  1  0
  4 14  1  0
  5 15  1  0
  5 16  1  0
  6 17  1  0
  6 18  1  0
  7 19  1  0
  7 20  1  0
M  CHG  1   2   1
M  END

