46508346
     RDKit          3D

 14 14  0  0  0  0  0  0  0  0999 V2000
    2.9040    1.0020    0.0609 O   0  0  0  0  0  0  0  0  0  0  0  0
    2.1187   -0.1138   -0.1368 C   0  0  0  0  0  0  0  0  0  0  0  0
    2.6954   -1.2003   -0.3617 O   0  0  0  0  0  0  0  0  0  0  0  0
    0.6718   -0.0658   -0.0926 C   0  0  0  0  0  0  0  0  0  0  0  0
    0.0921    1.1229    0.1521 N   0  0  0  0  0  0  0  0  0  0  0  0
   -1.2509    1.2625    0.2116 C   0  0  0  0  0  0  0  0  0  0  0  0
   -1.7951    2.3816    0.4420 O   0  0  0  0  0  0  0  0  0  0  0  0
   -2.0466    0.1926    0.0230 N   0  0  0  0  0  0  0  0  0  0  0  0
   -1.4486   -0.9851   -0.2201 C   0  0  0  0  0  0  0  0  0  0  0  0
   -2.2042   -1.9767   -0.3944 O   0  0  0  0  0  0  0  0  0  0  0  0
   -0.1095   -1.1374   -0.2819 N   0  0  0  0  0  0  0  0  0  0  0  0
    3.1292    1.2809    1.0013 H   0  0  0  0  0  0  0  0  0  0  0  0
   -3.0828    0.3155    0.0719 H   0  0  0  0  0  0  0  0  0  0  0  0
    0.3266   -2.0789   -0.4752 H   0  0  0  0  0  0  0  0  0  0  0  0
  1  2  1  0
  2  3  2  0
  2  4  1  0
  4  5  2  0
  5  6  1  0
  6  7  2  0
  6  8  1  0
  8  9  1  0
  9 10  2  0
  9 11  1  0
  4 11  1  0
  1 12  1  0
  8 13  1  0
 11 14  1  0
M  END

