46507613
     RDKit          3D

 92 97  0  0  1  0  0  0  0  0999 V2000
    6.4791   -2.0193    3.6671 C   0  0  0  0  0  0  0  0  0  0  0  0
    6.9821   -1.1059    2.7816 C   0  0  0  0  0  0  0  0  0  0  0  0
    5.4126   -2.8327    3.2590 C   0  0  0  0  0  0  0  0  0  0  0  0
    6.4343   -1.0061    1.5199 C   0  0  0  0  0  0  0  0  0  0  0  0
    4.8797   -2.7193    1.9969 C   0  0  0  0  0  0  0  0  0  0  0  0
    5.3925   -1.7861    1.0932 C   0  0  0  0  0  0  0  0  0  0  0  0
    3.7592   -3.4842    1.3453 C   0  0  0  0  0  0  0  0  0  0  0  0
    4.0757   -3.2594   -0.1095 C   0  0  2  0  0  0  0  0  0  0  0  0
    4.6265   -1.8577   -0.1777 C   0  0  1  0  0  0  0  0  0  0  0  0
    3.1092   -3.5730   -1.0053 O   0  0  0  0  0  0  0  0  0  0  0  0
    3.6380   -0.8136   -0.2392 N   0  0  0  0  0  0  0  0  0  0  0  0
    3.3232   -0.0591   -1.3707 C   0  0  0  0  0  0  0  0  0  0  0  0
    2.3308    1.0275   -1.4769 C   0  0  1  0  0  0  0  0  0  0  0  0
    0.9572    0.5301   -1.5504 C   0  0  2  0  0  0  0  0  0  0  0  0
    0.3637   -0.2937   -0.4872 C   0  0  1  0  0  0  0  0  0  0  0  0
   -1.0896   -0.5785   -0.8287 C   0  0  2  0  0  0  0  0  0  0  0  0
   -1.9660    0.5762   -0.9357 C   0  0  0  0  0  0  0  0  0  0  0  0
   -3.3187    0.3442   -1.3861 N   0  0  0  0  0  0  0  0  0  0  0  0
   -4.2734    1.4251   -1.5276 C   0  0  2  0  0  0  0  0  0  0  0  0
    3.9789   -0.3513   -2.4278 O   0  0  0  0  0  0  0  0  0  0  0  0
    2.6433    2.1463   -0.5245 C   0  0  0  0  0  0  0  0  0  0  0  0
    1.6861    3.3090   -0.5717 C   0  0  0  0  0  0  0  0  0  0  0  0
    2.0845    4.3763    0.3723 C   0  0  0  0  0  0  0  0  0  0  0  0
    1.6458    4.3696    1.6699 C   0  0  0  0  0  0  0  0  0  0  0  0
    2.0227    5.3778    2.5697 C   0  0  0  0  0  0  0  0  0  0  0  0
    2.8492    6.3875    2.1314 C   0  0  0  0  0  0  0  0  0  0  0  0
    2.9073    5.3951   -0.0383 C   0  0  0  0  0  0  0  0  0  0  0  0
    3.2963    6.4081    0.8367 C   0  0  0  0  0  0  0  0  0  0  0  0
    0.7279   -0.1789   -2.7741 O   0  0  0  0  0  0  0  0  0  0  0  0
    0.9206   -1.5766   -0.3894 O   0  0  0  0  0  0  0  0  0  0  0  0
   -1.6669   -1.6981   -0.0082 C   0  0  0  0  0  0  0  0  0  0  0  0
   -1.6944   -1.4916    1.4601 C   0  0  0  0  0  0  0  0  0  0  0  0
   -2.2951   -2.7325    2.0563 C   0  0  0  0  0  0  0  0  0  0  0  0
   -4.2454   -3.9306    2.7756 C   0  0  0  0  0  0  0  0  0  0  0  0
   -3.6544   -2.7827    2.2259 C   0  0  0  0  0  0  0  0  0  0  0  0
   -3.4876   -5.0184    3.1534 C   0  0  0  0  0  0  0  0  0  0  0  0
   -2.1240   -4.9571    2.9789 C   0  0  0  0  0  0  0  0  0  0  0  0
   -1.5381   -3.8097    2.4300 C   0  0  0  0  0  0  0  0  0  0  0  0
   -1.6810    1.7678   -0.6757 O   0  0  0  0  0  0  0  0  0  0  0  0
   -5.3974    1.2799   -0.5619 C   0  0  1  0  0  0  0  0  0  0  0  0
   -4.9042    1.4172   -2.8469 C   0  0  0  0  0  0  0  0  0  0  0  0
   -6.6345    1.5874   -1.3205 C   0  0  0  0  0  0  0  0  0  0  0  0
   -6.2731    1.5146   -2.7427 C   0  0  0  0  0  0  0  0  0  0  0  0
   -5.4109    0.0264    0.0649 O   0  0  0  0  0  0  0  0  0  0  0  0
   -4.3922    1.3347   -4.1228 C   0  0  0  0  0  0  0  0  0  0  0  0
   -5.1737    1.3464   -5.2565 C   0  0  0  0  0  0  0  0  0  0  0  0
   -6.5395    1.4442   -5.1401 C   0  0  0  0  0  0  0  0  0  0  0  0
   -7.0826    1.5284   -3.8768 C   0  0  0  0  0  0  0  0  0  0  0  0
    6.8898   -2.1237    4.6780 H   0  0  0  0  0  0  0  0  0  0  0  0
    7.8023   -0.4793    3.0952 H   0  0  0  0  0  0  0  0  0  0  0  0
    5.0686   -3.5281    4.0166 H   0  0  0  0  0  0  0  0  0  0  0  0
    6.8732   -0.2612    0.8524 H   0  0  0  0  0  0  0  0  0  0  0  0
    2.7738   -3.1687    1.6713 H   0  0  0  0  0  0  0  0  0  0  0  0
    3.8398   -4.5820    1.5949 H   0  0  0  0  0  0  0  0  0  0  0  0
    4.9498   -3.9497   -0.3207 H   0  0  0  0  0  0  0  0  0  0  0  0
    5.2504   -1.8164   -1.0828 H   0  0  0  0  0  0  0  0  0  0  0  0
    3.3262   -4.3286   -1.6073 H   0  0  0  0  0  0  0  0  0  0  0  0
    3.1464   -0.6075    0.6568 H   0  0  0  0  0  0  0  0  0  0  0  0
    2.5636    1.5202   -2.4971 H   0  0  0  0  0  0  0  0  0  0  0  0
    0.2691    1.4229   -1.7034 H   0  0  0  0  0  0  0  0  0  0  0  0
    0.3580    0.1606    0.5127 H   0  0  0  0  0  0  0  0  0  0  0  0
   -1.0519   -1.0200   -1.8871 H   0  0  0  0  0  0  0  0  0  0  0  0
   -3.6443   -0.6079   -1.6233 H   0  0  0  0  0  0  0  0  0  0  0  0
   -3.7179    2.3653   -1.3264 H   0  0  0  0  0  0  0  0  0  0  0  0
    2.7731    1.8218    0.5203 H   0  0  0  0  0  0  0  0  0  0  0  0
    3.6509    2.5538   -0.8343 H   0  0  0  0  0  0  0  0  0  0  0  0
    1.6814    3.6615   -1.6393 H   0  0  0  0  0  0  0  0  0  0  0  0
    0.6421    3.0027   -0.3767 H   0  0  0  0  0  0  0  0  0  0  0  0
    0.9969    3.6024    2.0697 H   0  0  0  0  0  0  0  0  0  0  0  0
    1.6885    5.3871    3.5848 H   0  0  0  0  0  0  0  0  0  0  0  0
    3.1574    7.1802    2.8041 H   0  0  0  0  0  0  0  0  0  0  0  0
    3.2908    5.4668   -1.0475 H   0  0  0  0  0  0  0  0  0  0  0  0
    3.9437    7.2175    0.5338 H   0  0  0  0  0  0  0  0  0  0  0  0
    0.9604   -1.1294   -2.6735 H   0  0  0  0  0  0  0  0  0  0  0  0
    1.1534   -1.8724    0.4914 H   0  0  0  0  0  0  0  0  0  0  0  0
   -2.7039   -1.8829   -0.3810 H   0  0  0  0  0  0  0  0  0  0  0  0
   -1.0852   -2.6118   -0.2464 H   0  0  0  0  0  0  0  0  0  0  0  0
   -2.3484   -0.6420    1.7734 H   0  0  0  0  0  0  0  0  0  0  0  0
   -0.6795   -1.3593    1.8558 H   0  0  0  0  0  0  0  0  0  0  0  0
   -5.3086   -3.9928    2.9183 H   0  0  0  0  0  0  0  0  0  0  0  0
   -4.3408   -1.9890    1.9654 H   0  0  0  0  0  0  0  0  0  0  0  0
   -3.9632   -5.9111    3.5839 H   0  0  0  0  0  0  0  0  0  0  0  0
   -1.5225   -5.8085    3.2719 H   0  0  0  0  0  0  0  0  0  0  0  0
   -0.4759   -3.8227    2.3201 H   0  0  0  0  0  0  0  0  0  0  0  0
   -5.2829    2.0733    0.2294 H   0  0  0  0  0  0  0  0  0  0  0  0
   -7.0654    2.5752   -1.0380 H   0  0  0  0  0  0  0  0  0  0  0  0
   -7.4716    0.8620   -1.0782 H   0  0  0  0  0  0  0  0  0  0  0  0
   -4.6600    0.0194    0.7154 H   0  0  0  0  0  0  0  0  0  0  0  0
   -3.3101    1.2529   -4.2733 H   0  0  0  0  0  0  0  0  0  0  0  0
   -4.7494    1.2832   -6.2618 H   0  0  0  0  0  0  0  0  0  0  0  0
   -7.1907    1.4563   -6.0290 H   0  0  0  0  0  0  0  0  0  0  0  0
   -8.1613    1.6058   -3.8037 H   0  0  0  0  0  0  0  0  0  0  0  0
  1  2  2  0
  1  3  1  0
  2  4  1  0
  3  5  2  0
  4  6  2  0
  5  6  1  0
  5  7  1  0
  6  9  1  0
  7  8  1  0
  8  9  1  0
  8 10  1  0
  9 11  1  0
 11 12  1  0
 12 13  1  0
 12 20  2  0
 13 14  1  0
 13 21  1  0
 14 15  1  0
 14 29  1  0
 15 16  1  0
 15 30  1  0
 16 17  1  0
 16 31  1  0
 17 18  1  0
 17 39  2  0
 19 18  1  0
 19 40  1  0
 19 41  1  0
 21 22  1  0
 22 23  1  0
 23 24  2  0
 23 27  1  0
 24 25  1  0
 25 26  2  0
 26 28  1  0
 27 28  2  0
 31 32  1  0
 32 33  1  0
 33 35  1  0
 33 38  2  0
 34 35  2  0
 34 36  1  0
 36 37  2  0
 37 38  1  0
 40 42  1  0
 40 44  1  0
 41 45  2  0
 41 43  1  0
 42 43  1  0
 43 48  2  0
 45 46  1  0
 46 47  2  0
 47 48  1  0
  1 49  1  0
  2 50  1  0
  3 51  1  0
  4 52  1  0
  7 53  1  0
  7 54  1  0
  8 55  1  6
  9 56  1  6
 10 57  1  0
 11 58  1  0
 13 59  1  6
 14 60  1  6
 15 61  1  1
 16 62  1  6
 18 63  1  0
 19 64  1  1
 21 65  1  0
 21 66  1  0
 22 67  1  0
 22 68  1  0
 24 69  1  0
 25 70  1  0
 26 71  1  0
 27 72  1  0
 28 73  1  0
 29 74  1  0
 30 75  1  0
 31 76  1  0
 31 77  1  0
 32 78  1  0
 32 79  1  0
 34 80  1  0
 35 81  1  0
 36 82  1  0
 37 83  1  0
 38 84  1  0
 40 85  1  1
 42 86  1  0
 42 87  1  0
 44 88  1  0
 45 89  1  0
 46 90  1  0
 47 91  1  0
 48 92  1  0
M  END

