46508030
     RDKit          3D

 16 15  0  0  0  0  0  0  0  0999 V2000
   -2.2525    0.4967    0.1704 C   0  0  0  0  0  0  0  0  0  0  0  0
   -1.0427   -0.3453   -0.0026 C   0  0  0  0  0  0  0  0  0  0  0  0
    0.2340    0.4458   -0.1882 C   0  0  0  0  0  0  0  0  0  0  0  0
    1.3410   -0.6030   -0.3460 C   0  0  0  0  0  0  0  0  0  0  0  0
    2.5929    0.0818   -0.5279 N   0  0  0  0  0  0  0  0  0  0  0  0
   -2.9603    0.3869   -0.6963 H   0  0  0  0  0  0  0  0  0  0  0  0
   -2.8314    0.0772    1.0452 H   0  0  0  0  0  0  0  0  0  0  0  0
   -2.0697    1.5668    0.3237 H   0  0  0  0  0  0  0  0  0  0  0  0
   -0.8505   -1.0421    0.8538 H   0  0  0  0  0  0  0  0  0  0  0  0
   -1.1469   -0.9884   -0.9079 H   0  0  0  0  0  0  0  0  0  0  0  0
    0.5031    1.0578    0.6732 H   0  0  0  0  0  0  0  0  0  0  0  0
    0.2265    1.0562   -1.1180 H   0  0  0  0  0  0  0  0  0  0  0  0
    1.4058   -1.2279    0.5657 H   0  0  0  0  0  0  0  0  0  0  0  0
    1.0460   -1.2152   -1.2397 H   0  0  0  0  0  0  0  0  0  0  0  0
    2.4526    0.8422   -1.2042 H   0  0  0  0  0  0  0  0  0  0  0  0
    3.3519   -0.5895   -0.7692 H   0  0  0  0  0  0  0  0  0  0  0  0
  1  2  1  0
  2  3  1  0
  3  4  1  0
  4  5  1  0
  1  6  1  0
  1  7  1  0
  1  8  1  0
  2  9  1  0
  2 10  1  0
  3 11  1  0
  3 12  1  0
  4 13  1  0
  4 14  1  0
  5 15  1  0
  5 16  1  0
M  END

