46508464
     RDKit          3D

 87 90  0  0  1  0  0  0  0  0999 V2000
   -7.5364   -0.5244    1.7434 C   0  0  0  0  0  0  0  0  0  0  0  0
    6.7687    0.1397   -2.4989 C   0  0  0  0  0  0  0  0  0  0  0  0
   -3.2467   -1.7708   -1.3186 C   0  0  0  0  0  0  0  0  0  0  0  0
    2.0395    1.2416    2.8492 C   0  0  0  0  0  0  0  0  0  0  0  0
   -7.7975    0.6502    0.8247 C   0  0  2  0  0  0  0  0  0  0  0  0
    7.1695   -0.5907   -1.2156 C   0  0  2  0  0  0  0  0  0  0  0  0
   -2.7278   -0.7918   -0.3180 C   0  0  2  0  0  0  0  0  0  0  0  0
    2.3697    1.0239    1.3687 C   0  0  2  0  0  0  0  0  0  0  0  0
   -8.7998    0.3031   -0.2462 C   0  0  2  0  0  0  0  0  0  0  0  0
   -8.1197    0.5502   -1.5754 C   0  0  1  0  0  0  0  0  0  0  0  0
    7.4715   -0.2140    1.1756 C   0  0  2  0  0  0  0  0  0  0  0  0
   -3.1237    0.9570    1.2676 C   0  0  2  0  0  0  0  0  0  0  0  0
    2.0955   -0.7625   -0.2927 C   0  0  2  0  0  0  0  0  0  0  0  0
    8.3332   -1.4316    0.9658 C   0  0  2  0  0  0  0  0  0  0  0  0
   -6.7830   -0.2065   -1.4786 C   0  0  2  0  0  0  0  0  0  0  0  0
    3.2897   -0.0688   -0.9175 C   0  0  2  0  0  0  0  0  0  0  0  0
   -1.7964    1.5634    0.8163 C   0  0  2  0  0  0  0  0  0  0  0  0
    6.5338    0.0320    0.0061 C   0  0  2  0  0  0  0  0  0  0  0  0
   -3.6884    0.3227   -0.0104 C   0  0  2  0  0  0  0  0  0  0  0  0
    1.3945    0.1455    0.6950 C   0  0  2  0  0  0  0  0  0  0  0  0
    9.1569   -1.3252   -0.3044 C   0  0  2  0  0  0  0  0  0  0  0  0
   -5.9196    0.5553   -0.5583 C   0  0  1  0  0  0  0  0  0  0  0  0
    4.2502    0.4059    0.1771 C   0  0  1  0  0  0  0  0  0  0  0  0
   -0.9019    0.4129    0.4123 C   0  0  1  0  0  0  0  0  0  0  0  0
   -8.7289   -1.1156    2.1601 O   0  0  0  0  0  0  0  0  0  0  0  0
    7.0723    1.4778   -2.3699 O   0  0  0  0  0  0  0  0  0  0  0  0
   -4.4559   -2.2883   -0.8684 O   0  0  0  0  0  0  0  0  0  0  0  0
    1.9375    0.0158    3.5029 O   0  0  0  0  0  0  0  0  0  0  0  0
   -9.9461    1.0923   -0.1967 O   0  0  0  0  0  0  0  0  0  0  0  0
   -8.8642    0.1529   -2.6562 O   0  0  0  0  0  0  0  0  0  0  0  0
    8.2953    0.8957    1.3425 O   0  0  0  0  0  0  0  0  0  0  0  0
   -3.9692    1.8396    1.8625 O   0  0  0  0  0  0  0  0  0  0  0  0
    2.6040   -1.8445    0.4245 O   0  0  0  0  0  0  0  0  0  0  0  0
    7.6230   -2.6134    0.9947 O   0  0  0  0  0  0  0  0  0  0  0  0
   -6.2938   -0.2243   -2.8055 O   0  0  0  0  0  0  0  0  0  0  0  0
    2.8538    1.0098   -1.6693 O   0  0  0  0  0  0  0  0  0  0  0  0
   -1.2940    2.2639    1.8976 O   0  0  0  0  0  0  0  0  0  0  0  0
   10.4589   -0.8734   -0.0123 O   0  0  0  0  0  0  0  0  0  0  0  0
    8.5615   -0.3718   -1.1019 O   0  0  0  0  0  0  0  0  0  0  0  0
   -6.6615    1.2640    0.3864 O   0  0  0  0  0  0  0  0  0  0  0  0
    3.6084    0.3381    1.4141 O   0  0  0  0  0  0  0  0  0  0  0  0
   -1.4757   -0.2652   -0.6952 O   0  0  0  0  0  0  0  0  0  0  0  0
    5.2805   -0.5278    0.2334 O   0  0  0  0  0  0  0  0  0  0  0  0
   -4.9550   -0.1302    0.1490 O   0  0  0  0  0  0  0  0  0  0  0  0
    0.3565    0.7478    0.0388 O   0  0  0  0  0  0  0  0  0  0  0  0
   -6.9798   -1.2944    1.1719 H   0  0  0  0  0  0  0  0  0  0  0  0
   -7.0011   -0.2273    2.6595 H   0  0  0  0  0  0  0  0  0  0  0  0
    7.4501   -0.2865   -3.2872 H   0  0  0  0  0  0  0  0  0  0  0  0
    5.7535   -0.0847   -2.8201 H   0  0  0  0  0  0  0  0  0  0  0  0
   -2.5639   -2.6405   -1.4246 H   0  0  0  0  0  0  0  0  0  0  0  0
   -3.4547   -1.3155   -2.3109 H   0  0  0  0  0  0  0  0  0  0  0  0
    1.1826    1.9100    3.0053 H   0  0  0  0  0  0  0  0  0  0  0  0
    2.9085    1.7603    3.3537 H   0  0  0  0  0  0  0  0  0  0  0  0
   -8.3172    1.4119    1.4813 H   0  0  0  0  0  0  0  0  0  0  0  0
    6.9419   -1.6542   -1.3218 H   0  0  0  0  0  0  0  0  0  0  0  0
   -2.4866   -1.3908    0.6110 H   0  0  0  0  0  0  0  0  0  0  0  0
    2.5869    1.9758    0.8653 H   0  0  0  0  0  0  0  0  0  0  0  0
   -9.1263   -0.7551   -0.1584 H   0  0  0  0  0  0  0  0  0  0  0  0
   -7.8424    1.6316   -1.6004 H   0  0  0  0  0  0  0  0  0  0  0  0
    6.8940   -0.3823    2.1055 H   0  0  0  0  0  0  0  0  0  0  0  0
   -2.8879    0.1200    1.9476 H   0  0  0  0  0  0  0  0  0  0  0  0
    1.4158   -1.1421   -1.0518 H   0  0  0  0  0  0  0  0  0  0  0  0
    9.0626   -1.4530    1.8066 H   0  0  0  0  0  0  0  0  0  0  0  0
   -6.9671   -1.2685   -1.2202 H   0  0  0  0  0  0  0  0  0  0  0  0
    3.8238   -0.7712   -1.5713 H   0  0  0  0  0  0  0  0  0  0  0  0
   -1.9462    2.2920   -0.0032 H   0  0  0  0  0  0  0  0  0  0  0  0
    6.4164    1.1173   -0.1755 H   0  0  0  0  0  0  0  0  0  0  0  0
   -3.6094    1.1671   -0.7581 H   0  0  0  0  0  0  0  0  0  0  0  0
    0.9447   -0.5378    1.4617 H   0  0  0  0  0  0  0  0  0  0  0  0
    9.2492   -2.3162   -0.7842 H   0  0  0  0  0  0  0  0  0  0  0  0
   -5.3862    1.3613   -1.1447 H   0  0  0  0  0  0  0  0  0  0  0  0
    4.6661    1.3875   -0.0406 H   0  0  0  0  0  0  0  0  0  0  0  0
   -0.9738   -0.3278    1.2354 H   0  0  0  0  0  0  0  0  0  0  0  0
   -9.2481   -0.4310    2.6523 H   0  0  0  0  0  0  0  0  0  0  0  0
    6.2515    2.0225   -2.2453 H   0  0  0  0  0  0  0  0  0  0  0  0
   -4.3877   -3.2174   -0.5332 H   0  0  0  0  0  0  0  0  0  0  0  0
    2.7973   -0.2938    3.8779 H   0  0  0  0  0  0  0  0  0  0  0  0
  -10.3906    1.0872    0.6762 H   0  0  0  0  0  0  0  0  0  0  0  0
   -8.2209   -0.1479   -3.3628 H   0  0  0  0  0  0  0  0  0  0  0  0
    7.8302    1.4971    1.9801 H   0  0  0  0  0  0  0  0  0  0  0  0
   -4.2272    2.5793    1.2873 H   0  0  0  0  0  0  0  0  0  0  0  0
    2.7831   -2.6102   -0.1457 H   0  0  0  0  0  0  0  0  0  0  0  0
    8.0023   -3.3207    0.4046 H   0  0  0  0  0  0  0  0  0  0  0  0
   -6.2328   -1.1175   -3.1769 H   0  0  0  0  0  0  0  0  0  0  0  0
    3.5749    1.6265   -1.9214 H   0  0  0  0  0  0  0  0  0  0  0  0
   -1.2709    3.2493    1.7479 H   0  0  0  0  0  0  0  0  0  0  0  0
   10.5463   -0.6707    0.9593 H   0  0  0  0  0  0  0  0  0  0  0  0
  5  1  1  0
  6  2  1  0
  7  3  1  0
  8  4  1  0
  5  9  1  0
  9 10  1  0
 11 14  1  0
 10 15  1  0
 13 16  1  0
 12 17  1  0
  6 18  1  0
 11 18  1  0
  7 19  1  0
 12 19  1  0
  8 20  1  0
 13 20  1  0
 14 21  1  0
 15 22  1  0
 16 23  1  0
 17 24  1  0
  1 25  1  0
  2 26  1  0
  3 27  1  0
  4 28  1  0
  9 29  1  0
 10 30  1  0
 11 31  1  0
 12 32  1  0
 13 33  1  0
 14 34  1  0
 15 35  1  0
 16 36  1  0
 17 37  1  0
 21 38  1  0
  6 39  1  0
 21 39  1  0
  5 40  1  0
 22 40  1  0
  8 41  1  0
 23 41  1  0
  7 42  1  0
 24 42  1  0
 18 43  1  0
 23 43  1  0
 19 44  1  0
 22 44  1  0
 20 45  1  0
 24 45  1  0
  1 46  1  0
  1 47  1  0
  2 48  1  0
  2 49  1  0
  3 50  1  0
  3 51  1  0
  4 52  1  0
  4 53  1  0
  5 54  1  1
  6 55  1  6
  7 56  1  1
  8 57  1  6
  9 58  1  6
 10 59  1  6
 11 60  1  1
 12 61  1  1
 13 62  1  6
 14 63  1  1
 15 64  1  1
 16 65  1  6
 17 66  1  6
 18 67  1  6
 19 68  1  6
 20 69  1  1
 21 70  1  6
 22 71  1  6
 23 72  1  6
 24 73  1  1
 25 74  1  0
 26 75  1  0
 27 76  1  0
 28 77  1  0
 29 78  1  0
 30 79  1  0
 31 80  1  0
 32 81  1  0
 33 82  1  0
 34 83  1  0
 35 84  1  0
 36 85  1  0
 37 86  1  0
 38 87  1  0
M  END

