46506408
     RDKit          3D

 24 25  0  0  0  0  0  0  0  0999 V2000
    0.4187   -2.3906   -0.1937 O   0  0  0  0  0  0  0  0  0  0  0  0
   -3.1037    0.3585   -0.3615 O   0  0  0  0  0  0  0  0  0  0  0  0
   -1.0652    1.2866   -0.1697 N   0  0  0  0  0  0  0  0  0  0  0  0
    2.1578    0.0022    0.0301 N   0  0  0  0  0  0  0  0  0  0  0  0
   -1.3642   -1.0496   -0.2805 N   0  0  0  0  0  0  0  0  0  0  0  0
    1.2783    2.0039    0.0376 N   0  0  0  0  0  0  0  0  0  0  0  0
    0.8290   -0.1525   -0.0780 C   0  0  0  0  0  0  0  0  0  0  0  0
    0.2612    1.1245   -0.0737 C   0  0  0  0  0  0  0  0  0  0  0  0
   -0.0334   -1.2173   -0.1844 C   0  0  0  0  0  0  0  0  0  0  0  0
   -1.8551    0.2244   -0.2704 C   0  0  0  0  0  0  0  0  0  0  0  0
    2.4201    1.2974    0.0989 C   0  0  0  0  0  0  0  0  0  0  0  0
   -1.6210    2.6197   -0.1624 C   0  0  0  0  0  0  0  0  0  0  0  0
    3.1217   -1.0862    0.0634 C   0  0  0  0  0  0  0  0  0  0  0  0
   -2.2791   -2.1645   -0.3928 C   0  0  0  0  0  0  0  0  0  0  0  0
    3.3937    1.7546    0.1911 H   0  0  0  0  0  0  0  0  0  0  0  0
   -2.7231    2.5817   -0.0695 H   0  0  0  0  0  0  0  0  0  0  0  0
   -1.3483    3.1319   -1.1289 H   0  0  0  0  0  0  0  0  0  0  0  0
   -1.2500    3.1991    0.7085 H   0  0  0  0  0  0  0  0  0  0  0  0
    3.6200   -1.1640   -0.9209 H   0  0  0  0  0  0  0  0  0  0  0  0
    2.6790   -2.0553    0.2989 H   0  0  0  0  0  0  0  0  0  0  0  0
    3.8515   -0.8590    0.8787 H   0  0  0  0  0  0  0  0  0  0  0  0
   -2.5555   -2.4558    0.6507 H   0  0  0  0  0  0  0  0  0  0  0  0
   -3.1468   -1.9619   -1.0245 H   0  0  0  0  0  0  0  0  0  0  0  0
   -1.6855   -3.0277   -0.7868 H   0  0  0  0  0  0  0  0  0  0  0  0
  1  9  2  0
  2 10  2  0
  3  8  1  0
  3 10  1  0
  3 12  1  0
  4  7  1  0
  4 11  1  0
  4 13  1  0
  5  9  1  0
  5 10  1  0
  5 14  1  0
  6  8  1  0
  6 11  2  0
  7  8  2  0
  7  9  1  0
 11 15  1  0
 12 16  1  0
 12 17  1  0
 12 18  1  0
 13 19  1  0
 13 20  1  0
 13 21  1  0
 14 22  1  0
 14 23  1  0
 14 24  1  0
M  END

