46507311
     RDKit          3D

 23 23  0  0  0  0  0  0  0  0999 V2000
   -1.1497   -0.0299    0.1125 C   0  0  0  0  0  0  0  0  0  0  0  0
   -2.0360   -1.0775    0.0061 C   0  0  0  0  0  0  0  0  0  0  0  0
   -3.4085   -0.8692   -0.2463 C   0  0  0  0  0  0  0  0  0  0  0  0
   -3.8453    0.4183   -0.3850 C   0  0  0  0  0  0  0  0  0  0  0  0
   -3.0077    1.4898   -0.2883 C   0  0  0  0  0  0  0  0  0  0  0  0
   -1.6718    1.2582   -0.0413 C   0  0  0  0  0  0  0  0  0  0  0  0
    0.2736   -0.1873    0.3711 C   0  0  0  0  0  0  0  0  0  0  0  0
    3.1744    0.0188   -0.2127 C   0  0  0  0  0  0  0  0  0  0  0  0
    4.6398   -0.2708   -0.0896 C   0  0  0  0  0  0  0  0  0  0  0  0
    1.1224    0.9570    0.4659 N   0  0  0  0  0  0  0  0  0  0  0  0
   -1.6414   -2.3683    0.1374 O   0  0  0  0  0  0  0  0  0  0  0  0
    0.7734   -1.3385    0.5144 O   0  0  0  0  0  0  0  0  0  0  0  0
    2.4935    0.7694    0.7164 O   0  0  0  0  0  0  0  0  0  0  0  0
    2.5644   -0.4473   -1.2033 O   0  0  0  0  0  0  0  0  0  0  0  0
   -4.0832   -1.7327   -0.3239 H   0  0  0  0  0  0  0  0  0  0  0  0
   -4.9102    0.5774   -0.5807 H   0  0  0  0  0  0  0  0  0  0  0  0
   -3.3828    2.4857   -0.4025 H   0  0  0  0  0  0  0  0  0  0  0  0
   -0.9894    2.0807    0.0398 H   0  0  0  0  0  0  0  0  0  0  0  0
    5.1497    0.6269    0.3525 H   0  0  0  0  0  0  0  0  0  0  0  0
    4.8300   -1.1771    0.5225 H   0  0  0  0  0  0  0  0  0  0  0  0
    5.0318   -0.3706   -1.1113 H   0  0  0  0  0  0  0  0  0  0  0  0
    0.8476    1.9436    0.3703 H   0  0  0  0  0  0  0  0  0  0  0  0
   -0.7746   -2.7566    0.3089 H   0  0  0  0  0  0  0  0  0  0  0  0
  1  2  2  0
  1  6  1  0
  1  7  1  0
  2  3  1  0
  2 11  1  0
  3  4  2  0
  4  5  1  0
  5  6  2  0
  7 10  1  0
  7 12  2  0
  8  9  1  0
  8 13  1  0
  8 14  2  0
 10 13  1  0
  3 15  1  0
  4 16  1  0
  5 17  1  0
  6 18  1  0
  9 19  1  0
  9 20  1  0
  9 21  1  0
 10 22  1  0
 11 23  1  0
M  END

