46505996
     RDKit          3D

 34 33  0  0  0  0  0  0  0  0999 V2000
    1.8167    0.3425   -0.0430 C   0  0  0  0  0  0  0  0  0  0  0  0
   -2.7682    0.6264    0.4685 C   0  0  0  0  0  0  0  0  0  0  0  0
    0.6093    1.0010   -0.6812 C   0  0  0  0  0  0  0  0  0  0  0  0
   -1.5448    0.1217    1.1731 C   0  0  0  0  0  0  0  0  0  0  0  0
   -0.0821    1.9358    0.2717 C   0  0  0  0  0  0  0  0  0  0  0  0
   -0.5683    1.2212    1.4931 C   0  0  0  0  0  0  0  0  0  0  0  0
    2.4148   -0.5436   -1.0780 C   0  0  0  0  0  0  0  0  0  0  0  0
    3.6274   -1.2590   -0.5611 C   0  0  0  0  0  0  0  0  0  0  0  0
   -3.7513   -0.4652    0.1434 C   0  0  0  0  0  0  0  0  0  0  0  0
   -3.1734   -1.5099   -0.7435 C   0  0  0  0  0  0  0  0  0  0  0  0
    4.6642   -0.2735   -0.2116 C   0  0  0  0  0  0  0  0  0  0  0  0
    4.4933    0.8982   -0.4389 O   0  0  0  0  0  0  0  0  0  0  0  0
    1.4466   -0.2955    0.8091 H   0  0  0  0  0  0  0  0  0  0  0  0
    2.4297    1.1220    0.3836 H   0  0  0  0  0  0  0  0  0  0  0  0
   -3.2823    1.3208    1.1738 H   0  0  0  0  0  0  0  0  0  0  0  0
   -2.4521    1.0967   -0.4648 H   0  0  0  0  0  0  0  0  0  0  0  0
   -0.1364    0.2183   -0.9600 H   0  0  0  0  0  0  0  0  0  0  0  0
    0.9290    1.5001   -1.6086 H   0  0  0  0  0  0  0  0  0  0  0  0
   -1.9011   -0.2653    2.1735 H   0  0  0  0  0  0  0  0  0  0  0  0
   -1.0193   -0.6927    0.6353 H   0  0  0  0  0  0  0  0  0  0  0  0
   -0.9005    2.4275   -0.2999 H   0  0  0  0  0  0  0  0  0  0  0  0
    0.6019    2.7835    0.5623 H   0  0  0  0  0  0  0  0  0  0  0  0
   -1.0164    1.9471    2.2387 H   0  0  0  0  0  0  0  0  0  0  0  0
    0.2887    0.7876    2.0431 H   0  0  0  0  0  0  0  0  0  0  0  0
    1.6158   -1.2384   -1.4133 H   0  0  0  0  0  0  0  0  0  0  0  0
    2.6616    0.0828   -1.9835 H   0  0  0  0  0  0  0  0  0  0  0  0
    3.9761   -1.9426   -1.3920 H   0  0  0  0  0  0  0  0  0  0  0  0
    3.3384   -1.8913    0.3177 H   0  0  0  0  0  0  0  0  0  0  0  0
   -4.6623   -0.0089   -0.3005 H   0  0  0  0  0  0  0  0  0  0  0  0
   -4.1094   -0.9729    1.0850 H   0  0  0  0  0  0  0  0  0  0  0  0
   -2.0937   -1.3062   -0.9803 H   0  0  0  0  0  0  0  0  0  0  0  0
   -3.3075   -2.5200   -0.3343 H   0  0  0  0  0  0  0  0  0  0  0  0
   -3.7262   -1.4694   -1.7262 H   0  0  0  0  0  0  0  0  0  0  0  0
    5.5816   -0.5878    0.2486 H   0  0  0  0  0  0  0  0  0  0  0  0
  1  3  1  0
  2  4  1  0
  3  5  1  0
  4  6  1  0
  5  6  1  0
  1  7  1  0
  7  8  1  0
  2  9  1  0
  9 10  1  0
  8 11  1  0
 11 12  2  0
  1 13  1  0
  1 14  1  0
  2 15  1  0
  2 16  1  0
  3 17  1  0
  3 18  1  0
  4 19  1  0
  4 20  1  0
  5 21  1  0
  5 22  1  0
  6 23  1  0
  6 24  1  0
  7 25  1  0
  7 26  1  0
  8 27  1  0
  8 28  1  0
  9 29  1  0
  9 30  1  0
 10 31  1  0
 10 32  1  0
 10 33  1  0
 11 34  1  0
M  END

