46506414
     RDKit          3D

 23 23  0  0  1  0  0  0  0  0999 V2000
    0.6532   -0.1839   -0.4565 C   0  0  0  0  0  0  0  0  0  0  0  0
    1.1416    1.0145   -0.9435 C   0  0  0  0  0  0  0  0  0  0  0  0
    1.5671   -1.0356    0.1573 C   0  0  0  0  0  0  0  0  0  0  0  0
   -0.7388   -0.6124   -0.5406 C   0  0  0  0  0  0  0  0  0  0  0  0
    2.4739    1.3469   -0.8246 C   0  0  0  0  0  0  0  0  0  0  0  0
    2.8989   -0.6949    0.2720 C   0  0  0  0  0  0  0  0  0  0  0  0
   -1.5864   -0.2015    0.6272 C   0  0  0  0  0  0  0  0  0  0  0  0
    3.3757    0.5031   -0.2173 C   0  0  0  0  0  0  0  0  0  0  0  0
   -2.9972   -0.7264    0.3776 C   0  0  0  0  0  0  0  0  0  0  0  0
   -1.7061    1.2442    0.7361 N   0  0  0  0  0  0  0  0  0  0  0  0
    0.4451    1.6876   -1.4230 H   0  0  0  0  0  0  0  0  0  0  0  0
    1.2667   -1.9952    0.5665 H   0  0  0  0  0  0  0  0  0  0  0  0
   -0.7709   -1.7188   -0.5994 H   0  0  0  0  0  0  0  0  0  0  0  0
   -1.2593   -0.2491   -1.4620 H   0  0  0  0  0  0  0  0  0  0  0  0
    2.8180    2.3025   -1.2226 H   0  0  0  0  0  0  0  0  0  0  0  0
    3.6144   -1.3491    0.7463 H   0  0  0  0  0  0  0  0  0  0  0  0
   -1.2315   -0.6003    1.5926 H   0  0  0  0  0  0  0  0  0  0  0  0
    4.4225    0.7775   -0.1305 H   0  0  0  0  0  0  0  0  0  0  0  0
   -3.7640   -0.0728    0.8488 H   0  0  0  0  0  0  0  0  0  0  0  0
   -3.0360   -1.7473    0.8117 H   0  0  0  0  0  0  0  0  0  0  0  0
   -3.1434   -0.8379   -0.7150 H   0  0  0  0  0  0  0  0  0  0  0  0
   -2.4771    1.6133    0.1026 H   0  0  0  0  0  0  0  0  0  0  0  0
   -1.9665    1.5356    1.6965 H   0  0  0  0  0  0  0  0  0  0  0  0
  1  2  2  0
  1  3  1  0
  1  4  1  0
  2  5  1  0
  3  6  2  0
  4  7  1  0
  5  8  2  0
  7  9  1  0
  7 10  1  0
  6  8  1  0
  2 11  1  0
  3 12  1  0
  4 13  1  0
  4 14  1  0
  5 15  1  0
  6 16  1  0
  7 17  1  0
  8 18  1  0
  9 19  1  0
  9 20  1  0
  9 21  1  0
 10 22  1  0
 10 23  1  0
M  END

