46504875
     RDKit          3D

 11 10  0  0  0  0  0  0  0  0999 V2000
    1.9887   -0.7704   -1.0782 O   0  0  0  0  0  0  0  0  0  0  0  0
    0.7907   -0.5983   -0.4139 C   0  0  0  0  0  0  0  0  0  0  0  0
    0.2614   -1.5992    0.1074 O   0  0  0  0  0  0  0  0  0  0  0  0
    0.1471    0.7262   -0.3194 C   0  0  0  0  0  0  0  0  0  0  0  0
   -1.1398    0.5263    0.4022 C   0  0  0  0  0  0  0  0  0  0  0  0
   -2.2181   -0.0720   -0.2616 O   0  0  0  0  0  0  0  0  0  0  0  0
   -1.3396    0.8581    1.5983 O   0  0  0  0  0  0  0  0  0  0  0  0
    2.8882   -0.5582   -0.6771 H   0  0  0  0  0  0  0  0  0  0  0  0
    0.7691    1.4446    0.2864 H   0  0  0  0  0  0  0  0  0  0  0  0
    0.0015    1.1017   -1.3529 H   0  0  0  0  0  0  0  0  0  0  0  0
   -2.1492   -1.0588   -0.5610 H   0  0  0  0  0  0  0  0  0  0  0  0
  1  2  1  0
  2  3  2  0
  2  4  1  0
  4  5  1  0
  5  6  1  0
  5  7  2  0
  1  8  1  0
  4  9  1  0
  4 10  1  0
  6 11  1  0
M  END

