46504560
     RDKit          3D

  7  6  0  0  0  0  0  0  0  0999 V2000
   -0.6950    0.0131    0.3452 C   0  0  0  0  0  0  0  0  0  0  0  0
    1.5642   -0.4483    0.4050 N   0  0  0  0  0  0  0  0  0  0  0  0
    0.4044   -0.8850    0.2891 N   0  0  0  0  0  0  0  0  0  0  0  0
   -1.5176   -0.4451   -0.2764 H   0  0  0  0  0  0  0  0  0  0  0  0
   -0.4445    0.9639   -0.1776 H   0  0  0  0  0  0  0  0  0  0  0  0
   -1.0472    0.2318    1.3618 H   0  0  0  0  0  0  0  0  0  0  0  0
    1.7358    0.5696    0.5428 H   0  0  0  0  0  0  0  0  0  0  0  0
  1  3  1  0
  2  3  2  3
  1  4  1  0
  1  5  1  0
  1  6  1  0
  2  7  1  0
M  END

