46504851
     RDKit          3D

 66 67  0  0  1  0  0  0  0  0999 V2000
   -2.7133   -0.2601    0.2282 O   0  0  0  0  0  0  0  0  0  0  0  0
   -1.8992   -4.3420   -0.1704 O   0  0  0  0  0  0  0  0  0  0  0  0
    2.4423    2.0009    1.7286 O   0  0  0  0  0  0  0  0  0  0  0  0
   -2.3562    1.4131    1.7112 O   0  0  0  0  0  0  0  0  0  0  0  0
    4.6369    1.1358    2.6848 O   0  0  0  0  0  0  0  0  0  0  0  0
    6.6759    0.3637   -0.8642 O   0  0  0  0  0  0  0  0  0  0  0  0
    7.4874   -1.5252    0.0808 O   0  0  0  0  0  0  0  0  0  0  0  0
   -0.7806   -1.3288   -0.5940 C   0  0  1  0  0  0  0  0  0  0  0  0
    0.0320   -0.1209   -1.0049 C   0  0  2  0  0  0  0  0  0  0  0  0
   -1.6047   -1.0409    0.6540 C   0  0  2  0  0  0  0  0  0  0  0  0
    0.5799   -0.4365   -2.3739 C   0  0  2  0  0  0  0  0  0  0  0  0
    1.1302    0.1741   -0.0299 C   0  0  0  0  0  0  0  0  0  0  0  0
   -1.7854   -1.6118   -1.6434 C   0  0  0  0  0  0  0  0  0  0  0  0
   -2.1479   -2.3598    1.1337 C   0  0  0  0  0  0  0  0  0  0  0  0
   -2.6727   -3.1608    0.0022 C   0  0  1  0  0  0  0  0  0  0  0  0
   -0.6202   -0.3759   -3.2980 C   0  0  0  0  0  0  0  0  0  0  0  0
    1.8912    1.3892   -0.4710 C   0  0  0  0  0  0  0  0  0  0  0  0
   -2.7021   -2.5160   -1.3189 C   0  0  0  0  0  0  0  0  0  0  0  0
   -1.7576   -0.9514   -2.9254 C   0  0  0  0  0  0  0  0  0  0  0  0
    1.0701   -1.8720   -2.4619 C   0  0  0  0  0  0  0  0  0  0  0  0
    3.0098    1.7545    0.4982 C   0  0  2  0  0  0  0  0  0  0  0  0
    4.0374    0.6718    0.4829 C   0  0  0  0  0  0  0  0  0  0  0  0
   -3.0583    0.9617    0.7797 C   0  0  0  0  0  0  0  0  0  0  0  0
    5.2084    1.0029    1.4089 C   0  0  2  0  0  0  0  0  0  0  0  0
   -4.2577    1.6991    0.2431 C   0  0  2  0  0  0  0  0  0  0  0  0
    6.0883   -0.2153    1.4739 C   0  0  0  0  0  0  0  0  0  0  0  0
   -4.4876    2.9823    0.9490 C   0  0  0  0  0  0  0  0  0  0  0  0
   -5.4173    0.7470    0.3015 C   0  0  0  0  0  0  0  0  0  0  0  0
   -4.7320    2.8278    2.4309 C   0  0  0  0  0  0  0  0  0  0  0  0
    6.7737   -0.4795    0.2044 C   0  0  0  0  0  0  0  0  0  0  0  0
   -2.0515   -4.7315   -1.0647 H   0  0  0  0  0  0  0  0  0  0  0  0
    2.3384    1.2091    2.2832 H   0  0  0  0  0  0  0  0  0  0  0  0
    5.0993    0.5875    3.3649 H   0  0  0  0  0  0  0  0  0  0  0  0
    6.7064    1.3722   -0.8088 H   0  0  0  0  0  0  0  0  0  0  0  0
   -0.1609   -2.2382   -0.4720 H   0  0  0  0  0  0  0  0  0  0  0  0
   -0.6380    0.7421   -1.0838 H   0  0  0  0  0  0  0  0  0  0  0  0
   -1.0345   -0.5939    1.4642 H   0  0  0  0  0  0  0  0  0  0  0  0
    1.3638    0.2071   -2.7403 H   0  0  0  0  0  0  0  0  0  0  0  0
    1.8499   -0.6652    0.0697 H   0  0  0  0  0  0  0  0  0  0  0  0
    0.7639    0.3747    0.9915 H   0  0  0  0  0  0  0  0  0  0  0  0
   -1.2814   -2.9154    1.5836 H   0  0  0  0  0  0  0  0  0  0  0  0
   -2.9019   -2.2054    1.9511 H   0  0  0  0  0  0  0  0  0  0  0  0
   -3.7043   -3.5712    0.2389 H   0  0  0  0  0  0  0  0  0  0  0  0
   -0.5574    0.1273   -4.2487 H   0  0  0  0  0  0  0  0  0  0  0  0
    1.1853    2.2749   -0.5272 H   0  0  0  0  0  0  0  0  0  0  0  0
    2.3223    1.3257   -1.4864 H   0  0  0  0  0  0  0  0  0  0  0  0
   -3.4722   -2.7629   -2.0579 H   0  0  0  0  0  0  0  0  0  0  0  0
   -2.6612   -0.9396   -3.5548 H   0  0  0  0  0  0  0  0  0  0  0  0
    1.6463   -2.1631   -1.5582 H   0  0  0  0  0  0  0  0  0  0  0  0
    1.7714   -1.9322   -3.3183 H   0  0  0  0  0  0  0  0  0  0  0  0
    0.2374   -2.5789   -2.6699 H   0  0  0  0  0  0  0  0  0  0  0  0
    3.4785    2.6942    0.0693 H   0  0  0  0  0  0  0  0  0  0  0  0
    3.6761   -0.3222    0.7813 H   0  0  0  0  0  0  0  0  0  0  0  0
    4.4131    0.5718   -0.5490 H   0  0  0  0  0  0  0  0  0  0  0  0
    5.7658    1.8781    1.0866 H   0  0  0  0  0  0  0  0  0  0  0  0
   -4.0238    1.9226   -0.8172 H   0  0  0  0  0  0  0  0  0  0  0  0
    5.4965   -1.1365    1.7240 H   0  0  0  0  0  0  0  0  0  0  0  0
    6.8305   -0.1353    2.3188 H   0  0  0  0  0  0  0  0  0  0  0  0
   -3.5908    3.6213    0.8394 H   0  0  0  0  0  0  0  0  0  0  0  0
   -5.3399    3.5061    0.5216 H   0  0  0  0  0  0  0  0  0  0  0  0
   -5.2454   -0.1127   -0.3778 H   0  0  0  0  0  0  0  0  0  0  0  0
   -6.3826    1.1876    0.0368 H   0  0  0  0  0  0  0  0  0  0  0  0
   -5.4787    0.2955    1.3312 H   0  0  0  0  0  0  0  0  0  0  0  0
   -5.5048    2.0636    2.6652 H   0  0  0  0  0  0  0  0  0  0  0  0
   -5.1822    3.8085    2.7672 H   0  0  0  0  0  0  0  0  0  0  0  0
   -3.8041    2.7076    3.0168 H   0  0  0  0  0  0  0  0  0  0  0  0
 10  1  1  0
  1 23  1  0
 15  2  1  0
 21  3  1  0
  4 23  2  0
 24  5  1  0
  6 30  1  0
  7 30  2  0
  8  9  1  0
  8 10  1  0
  8 13  1  0
  9 11  1  0
  9 12  1  0
 10 14  1  0
 11 16  1  0
 11 20  1  0
 12 17  1  0
 13 18  2  0
 13 19  1  0
 14 15  1  0
 15 18  1  0
 16 19  2  0
 17 21  1  0
 21 22  1  0
 22 24  1  0
 23 25  1  0
 24 26  1  0
 25 27  1  0
 25 28  1  0
 26 30  1  0
 27 29  1  0
  2 31  1  0
  3 32  1  0
  5 33  1  0
  6 34  1  0
  8 35  1  1
  9 36  1  6
 10 37  1  1
 11 38  1  6
 12 39  1  0
 12 40  1  0
 14 41  1  0
 14 42  1  0
 15 43  1  1
 16 44  1  0
 17 45  1  0
 17 46  1  0
 18 47  1  0
 19 48  1  0
 20 49  1  0
 20 50  1  0
 20 51  1  0
 21 52  1  6
 22 53  1  0
 22 54  1  0
 24 55  1  6
 25 56  1  6
 26 57  1  0
 26 58  1  0
 27 59  1  0
 27 60  1  0
 28 61  1  0
 28 62  1  0
 28 63  1  0
 29 64  1  0
 29 65  1  0
 29 66  1  0
M  END

