46508213
     RDKit          3D

 81 84  0  0  0  0  0  0  0  0999 V2000
   -0.7288    0.3378   -3.8153 O   0  0  0  0  0  0  0  0  0  0  0  0
   -1.7935    0.0962   -3.1843 C   0  0  0  0  0  0  0  0  0  0  0  0
   -1.8866    0.2195   -1.7449 N   0  0  0  0  0  0  0  0  0  0  0  0
   -3.2148   -0.1265   -1.4028 C   0  0  0  0  0  0  0  0  0  0  0  0
   -3.0968   -0.3264   -3.6500 C   0  0  0  0  0  0  0  0  0  0  0  0
   -3.9351   -0.4617   -2.6362 C   0  0  0  0  0  0  0  0  0  0  0  0
   -3.4296   -0.5710   -5.0991 C   0  0  0  0  0  0  0  0  0  0  0  0
   -5.3617   -0.8752   -2.6867 C   0  0  0  0  0  0  0  0  0  0  0  0
   -3.6991   -0.1310   -0.1721 C   0  0  0  0  0  0  0  0  0  0  0  0
   -2.9402    0.2185    1.0157 C   0  0  0  0  0  0  0  0  0  0  0  0
   -1.6918    0.5896    1.0812 N   0  0  0  0  0  0  0  0  0  0  0  0
   -1.3386    0.8407    2.4085 C   0  0  0  0  0  0  0  0  0  0  0  0
   -3.5052    0.2020    2.3584 C   0  0  0  0  0  0  0  0  0  0  0  0
   -2.5278    0.5822    3.2064 C   0  0  0  0  0  0  0  0  0  0  0  0
   -4.8566   -0.1283    2.8476 C   0  0  0  0  0  0  0  0  0  0  0  0
   -2.6448    0.7079    4.6797 C   0  0  0  0  0  0  0  0  0  0  0  0
   -0.1430    1.2365    2.8528 C   0  0  0  0  0  0  0  0  0  0  0  0
    0.9731    1.4494    1.9096 C   0  0  0  0  0  0  0  0  0  0  0  0
    1.3250    0.5765    0.9375 N   0  0  0  0  0  0  0  0  0  0  0  0
    2.3619    1.0402    0.2155 C   0  0  0  0  0  0  0  0  0  0  0  0
    1.8238    2.5183    1.8025 C   0  0  0  0  0  0  0  0  0  0  0  0
    2.6965    2.2854    0.7528 C   0  0  0  0  0  0  0  0  0  0  0  0
    1.8016    3.7359    2.6881 C   0  0  0  0  0  0  0  0  0  0  0  0
    3.7777    3.1689    0.2537 C   0  0  0  0  0  0  0  0  0  0  0  0
    3.0341    0.3414   -0.8748 C   0  0  0  0  0  0  0  0  0  0  0  0
    3.4481   -0.9203   -0.6654 C   0  0  0  0  0  0  0  0  0  0  0  0
    3.2827   -1.6386    0.5610 N   0  0  0  0  0  0  0  0  0  0  0  0
    3.8761   -2.9189    0.3056 C   0  0  0  0  0  0  0  0  0  0  0  0
    4.1310   -1.8005   -1.5957 C   0  0  0  0  0  0  0  0  0  0  0  0
    4.3956   -2.9869   -1.0486 C   0  0  0  0  0  0  0  0  0  0  0  0
    4.4756   -1.3833   -3.0063 C   0  0  0  0  0  0  0  0  0  0  0  0
    5.0901   -4.1150   -1.7257 C   0  0  0  0  0  0  0  0  0  0  0  0
    3.9182   -3.8276    1.1686 O   0  0  0  0  0  0  0  0  0  0  0  0
   -5.5003   -2.1429   -1.8536 C   0  0  0  0  0  0  0  0  0  0  0  0
   -5.2950   -1.5392    2.6603 C   0  0  0  0  0  0  0  0  0  0  0  0
   -6.6741   -1.6664    3.2605 C   0  0  0  0  0  0  0  0  0  0  0  0
   -7.3163   -2.8824    3.2124 O   0  0  0  0  0  0  0  0  0  0  0  0
   -7.2321   -0.6902    3.7951 O   0  0  0  0  0  0  0  0  0  0  0  0
    5.1598    2.6931    0.6277 C   0  0  0  0  0  0  0  0  0  0  0  0
    6.1134    3.6798    0.0489 C   0  0  0  0  0  0  0  0  0  0  0  0
    7.4675    3.4551    0.2452 O   0  0  0  0  0  0  0  0  0  0  0  0
    5.7817    4.6951   -0.6004 O   0  0  0  0  0  0  0  0  0  0  0  0
    5.3664   -0.1549   -3.0002 C   0  0  0  0  0  0  0  0  0  0  0  0
   -1.1242    0.5050   -1.1045 H   0  0  0  0  0  0  0  0  0  0  0  0
   -2.6140   -0.2358   -5.7538 H   0  0  0  0  0  0  0  0  0  0  0  0
   -4.3646    0.0137   -5.3018 H   0  0  0  0  0  0  0  0  0  0  0  0
   -3.6593   -1.6497   -5.2173 H   0  0  0  0  0  0  0  0  0  0  0  0
   -5.9758   -0.1054   -2.1340 H   0  0  0  0  0  0  0  0  0  0  0  0
   -5.7294   -1.0304   -3.7047 H   0  0  0  0  0  0  0  0  0  0  0  0
   -4.7478   -0.4128   -0.1004 H   0  0  0  0  0  0  0  0  0  0  0  0
   -4.9912    0.1887    3.9228 H   0  0  0  0  0  0  0  0  0  0  0  0
   -5.5588    0.5565    2.2934 H   0  0  0  0  0  0  0  0  0  0  0  0
   -3.3292   -0.0639    5.0736 H   0  0  0  0  0  0  0  0  0  0  0  0
   -1.6232    0.6745    5.1118 H   0  0  0  0  0  0  0  0  0  0  0  0
   -3.0491    1.7115    4.9240 H   0  0  0  0  0  0  0  0  0  0  0  0
   -0.0517    1.3868    3.9175 H   0  0  0  0  0  0  0  0  0  0  0  0
    0.7980   -0.3427    0.8084 H   0  0  0  0  0  0  0  0  0  0  0  0
    2.5201    4.4800    2.3474 H   0  0  0  0  0  0  0  0  0  0  0  0
    1.8815    3.4113    3.7328 H   0  0  0  0  0  0  0  0  0  0  0  0
    0.7827    4.2201    2.6204 H   0  0  0  0  0  0  0  0  0  0  0  0
    3.7388    3.1610   -0.8766 H   0  0  0  0  0  0  0  0  0  0  0  0
    3.6178    4.2300    0.5601 H   0  0  0  0  0  0  0  0  0  0  0  0
    3.2128    0.7842   -1.8367 H   0  0  0  0  0  0  0  0  0  0  0  0
    2.8367   -1.2964    1.4322 H   0  0  0  0  0  0  0  0  0  0  0  0
    5.0432   -2.2203   -3.4582 H   0  0  0  0  0  0  0  0  0  0  0  0
    3.5509   -1.2014   -3.5955 H   0  0  0  0  0  0  0  0  0  0  0  0
    4.6311   -4.3572   -2.6876 H   0  0  0  0  0  0  0  0  0  0  0  0
    4.9437   -4.9999   -1.0591 H   0  0  0  0  0  0  0  0  0  0  0  0
    6.1720   -3.9155   -1.8876 H   0  0  0  0  0  0  0  0  0  0  0  0
   -6.2172   -2.0454   -1.0228 H   0  0  0  0  0  0  0  0  0  0  0  0
   -4.5076   -2.4639   -1.4368 H   0  0  0  0  0  0  0  0  0  0  0  0
   -5.8068   -2.9907   -2.5092 H   0  0  0  0  0  0  0  0  0  0  0  0
   -5.4504   -1.7872    1.5932 H   0  0  0  0  0  0  0  0  0  0  0  0
   -4.6015   -2.2959    3.0933 H   0  0  0  0  0  0  0  0  0  0  0  0
   -7.3172   -3.5869    3.9257 H   0  0  0  0  0  0  0  0  0  0  0  0
    5.3857    1.7025    0.1327 H   0  0  0  0  0  0  0  0  0  0  0  0
    5.3065    2.5203    1.6933 H   0  0  0  0  0  0  0  0  0  0  0  0
    8.0328    3.4733   -0.6223 H   0  0  0  0  0  0  0  0  0  0  0  0
    6.3594   -0.3370   -3.4606 H   0  0  0  0  0  0  0  0  0  0  0  0
    5.5495    0.2449   -1.9815 H   0  0  0  0  0  0  0  0  0  0  0  0
    4.8677    0.6914   -3.5647 H   0  0  0  0  0  0  0  0  0  0  0  0
  1  2  2  0
  2  3  1  0
  2  5  1  0
  3  4  1  0
  4  6  1  0
  4  9  2  0
  5  6  2  0
  5  7  1  0
  6  8  1  0
  8 34  1  0
  9 10  1  0
 10 11  2  0
 10 13  1  0
 11 12  1  0
 12 14  1  0
 12 17  2  0
 13 14  2  0
 13 15  1  0
 14 16  1  0
 15 35  1  0
 17 18  1  0
 18 19  1  0
 18 21  2  0
 19 20  1  0
 20 22  2  0
 20 25  1  0
 21 22  1  0
 21 23  1  0
 22 24  1  0
 24 39  1  0
 25 26  2  0
 26 27  1  0
 26 29  1  0
 27 28  1  0
 28 30  1  0
 28 33  2  0
 29 30  2  0
 29 31  1  0
 30 32  1  0
 31 43  1  0
 35 36  1  0
 36 37  1  0
 36 38  2  0
 39 40  1  0
 40 41  1  0
 40 42  2  0
  3 44  1  0
  7 45  1  0
  7 46  1  0
  7 47  1  0
  8 48  1  0
  8 49  1  0
  9 50  1  0
 15 51  1  0
 15 52  1  0
 16 53  1  0
 16 54  1  0
 16 55  1  0
 17 56  1  0
 19 57  1  0
 23 58  1  0
 23 59  1  0
 23 60  1  0
 24 61  1  0
 24 62  1  0
 25 63  1  0
 27 64  1  0
 31 65  1  0
 31 66  1  0
 32 67  1  0
 32 68  1  0
 32 69  1  0
 34 70  1  0
 34 71  1  0
 34 72  1  0
 35 73  1  0
 35 74  1  0
 37 75  1  0
 39 76  1  0
 39 77  1  0
 41 78  1  0
 43 79  1  0
 43 80  1  0
 43 81  1  0
M  END

