46505073
     RDKit          3D

 33 35  0  0  1  0  0  0  0  0999 V2000
    0.7971   -0.6569   -0.4592 N   0  0  0  0  0  0  0  0  0  0  0  0
    1.8091    0.1981   -0.1621 C   0  0  0  0  0  0  0  0  0  0  0  0
   -0.5709   -0.3047   -0.6973 C   0  0  2  0  0  0  0  0  0  0  0  0
    1.3284   -1.8798   -0.4846 C   0  0  0  0  0  0  0  0  0  0  0  0
    2.9817   -0.5135   -0.0025 C   0  0  0  0  0  0  0  0  0  0  0  0
    1.8416    1.5665   -0.0071 C   0  0  0  0  0  0  0  0  0  0  0  0
   -1.0406    0.6908    0.1644 O   0  0  0  0  0  0  0  0  0  0  0  0
   -1.4796   -1.5013   -0.4740 C   0  0  1  0  0  0  0  0  0  0  0  0
    2.6455   -1.8038   -0.2104 N   0  0  0  0  0  0  0  0  0  0  0  0
    4.1799    0.0972    0.3057 C   0  0  0  0  0  0  0  0  0  0  0  0
    3.0354    2.1586    0.2982 C   0  0  0  0  0  0  0  0  0  0  0  0
   -2.4212    0.5926   -0.0445 C   0  0  1  0  0  0  0  0  0  0  0  0
   -2.6479   -0.8734    0.2588 C   0  0  1  0  0  0  0  0  0  0  0  0
   -1.9452   -1.9472   -1.7022 O   0  0  0  0  0  0  0  0  0  0  0  0
    4.1687    1.4348    0.4486 N   0  0  0  0  0  0  0  0  0  0  0  0
    5.3903   -0.6296    0.4713 N   0  0  0  0  0  0  0  0  0  0  0  0
   -3.1921    1.4829    0.9015 C   0  0  0  0  0  0  0  0  0  0  0  0
   -3.8725   -1.3192   -0.2306 O   0  0  0  0  0  0  0  0  0  0  0  0
   -2.8474    2.8167    0.7471 O   0  0  0  0  0  0  0  0  0  0  0  0
   -0.7146    0.0865   -1.7416 H   0  0  0  0  0  0  0  0  0  0  0  0
    0.8162   -2.8027   -0.6882 H   0  0  0  0  0  0  0  0  0  0  0  0
    0.9161    2.1119   -0.1348 H   0  0  0  0  0  0  0  0  0  0  0  0
   -0.9847   -2.2889    0.1230 H   0  0  0  0  0  0  0  0  0  0  0  0
    3.1064    3.2285    0.4286 H   0  0  0  0  0  0  0  0  0  0  0  0
   -2.7061    0.7865   -1.0990 H   0  0  0  0  0  0  0  0  0  0  0  0
   -2.5325   -1.0479    1.3495 H   0  0  0  0  0  0  0  0  0  0  0  0
   -2.8256   -1.5555   -1.9489 H   0  0  0  0  0  0  0  0  0  0  0  0
    6.3167   -0.2390    0.1642 H   0  0  0  0  0  0  0  0  0  0  0  0
    5.3980   -1.5678    0.9000 H   0  0  0  0  0  0  0  0  0  0  0  0
   -3.1498    1.1211    1.9359 H   0  0  0  0  0  0  0  0  0  0  0  0
   -4.2676    1.4025    0.5895 H   0  0  0  0  0  0  0  0  0  0  0  0
   -3.9451   -2.2724   -0.0499 H   0  0  0  0  0  0  0  0  0  0  0  0
   -3.5878    3.4280    1.0041 H   0  0  0  0  0  0  0  0  0  0  0  0
  1  2  1  0
  3  1  1  0
  1  4  1  0
  2  5  2  0
  2  6  1  0
  3  7  1  0
  3  8  1  0
  4  9  2  0
  5 10  1  0
  6 11  2  0
  7 12  1  0
  8 13  1  0
  8 14  1  0
 10 15  2  0
 10 16  1  0
 12 17  1  0
 13 18  1  0
 17 19  1  0
  5  9  1  0
 11 15  1  0
 12 13  1  0
  3 20  1  6
  4 21  1  0
  6 22  1  0
  8 23  1  1
 11 24  1  0
 12 25  1  6
 13 26  1  1
 14 27  1  0
 16 28  1  0
 16 29  1  0
 17 30  1  0
 17 31  1  0
 18 32  1  0
 19 33  1  0
M  END

