46506909
     RDKit          3D

 11 10  0  0  0  0  0  0  0  0999 V2000
    0.4383    0.4716    0.2727 C   0  0  0  0  0  0  0  0  0  0  0  0
    1.7509    0.6418   -0.2734 N   0  0  0  0  0  0  0  0  0  0  0  0
    0.0263    1.2065    1.2210 O   0  0  0  0  0  0  0  0  0  0  0  0
   -0.4163   -0.5963   -0.3147 C   0  0  0  0  0  0  0  0  0  0  0  0
   -1.6704   -0.5920    0.3714 N   0  0  0  0  0  0  0  0  0  0  0  0
    2.0654    1.5874   -0.5982 H   0  0  0  0  0  0  0  0  0  0  0  0
    2.3419   -0.2174   -0.3186 H   0  0  0  0  0  0  0  0  0  0  0  0
    0.0690   -1.5907   -0.0977 H   0  0  0  0  0  0  0  0  0  0  0  0
   -0.5090   -0.4501   -1.4086 H   0  0  0  0  0  0  0  0  0  0  0  0
   -1.6202   -0.2049    1.3337 H   0  0  0  0  0  0  0  0  0  0  0  0
   -2.4760   -0.2559   -0.1876 H   0  0  0  0  0  0  0  0  0  0  0  0
  1  2  1  0
  1  3  2  0
  1  4  1  0
  4  5  1  0
  2  6  1  0
  2  7  1  0
  4  8  1  0
  4  9  1  0
  5 10  1  0
  5 11  1  0
M  END

