46504442
     RDKit          3D

 54 54  0  0  1  0  0  0  0  0999 V2000
   -2.6287    4.8456   -0.3162 C   0  0  0  0  0  0  0  0  0  0  0  0
   -1.4821    4.9529    0.1352 O   0  0  0  0  0  0  0  0  0  0  0  0
   -3.5096    5.8973   -0.0268 O   0  0  0  0  0  0  0  0  0  0  0  0
   -3.0640    3.6840   -1.1190 C   0  0  0  0  0  0  0  0  0  0  0  0
   -3.4605    2.4889   -0.3090 C   0  0  2  0  0  0  0  0  0  0  0  0
   -4.5019    2.9472    0.5534 O   0  0  0  0  0  0  0  0  0  0  0  0
   -2.4477    1.7619    0.4207 C   0  0  0  0  0  0  0  0  0  0  0  0
   -2.5284    1.8634    1.7020 O   0  0  0  0  0  0  0  0  0  0  0  0
   -1.3784    0.9343   -0.0932 N   0  0  0  0  0  0  0  0  0  0  0  0
   -0.5881    0.3273    0.9454 C   0  0  1  0  0  0  0  0  0  0  0  0
   -1.2499   -1.0943    1.1329 C   0  0  0  0  0  0  0  0  0  0  0  0
   -1.1716   -1.8139   -0.1588 C   0  0  0  0  0  0  0  0  0  0  0  0
   -1.8365   -3.1382   -0.1118 C   0  0  0  0  0  0  0  0  0  0  0  0
   -2.2805   -3.7236    1.0579 C   0  0  0  0  0  0  0  0  0  0  0  0
   -2.8599   -4.9687    1.0399 C   0  0  0  0  0  0  0  0  0  0  0  0
   -3.0068   -5.6526   -0.1529 C   0  0  0  0  0  0  0  0  0  0  0  0
   -2.5695   -5.0843   -1.3325 C   0  0  0  0  0  0  0  0  0  0  0  0
   -1.9798   -3.8182   -1.2881 C   0  0  0  0  0  0  0  0  0  0  0  0
    0.8210    0.0966    0.7824 C   0  0  0  0  0  0  0  0  0  0  0  0
    1.7213    1.1562    0.7176 N   0  0  0  0  0  0  0  0  0  0  0  0
    3.1421    1.0319    0.6129 C   0  0  0  0  0  0  0  0  0  0  0  0
    3.5641    0.0859   -0.4454 C   0  0  0  0  0  0  0  0  0  0  0  0
    5.0590    0.0821   -0.7103 C   0  0  0  0  0  0  0  0  0  0  0  0
    5.4777    1.4580   -1.2464 C   0  0  0  0  0  0  0  0  0  0  0  0
    5.8179   -0.2539    0.5245 C   0  0  0  0  0  0  0  0  0  0  0  0
    1.2266   -1.1153    0.6988 O   0  0  0  0  0  0  0  0  0  0  0  0
   -4.5205    5.8271   -0.1261 H   0  0  0  0  0  0  0  0  0  0  0  0
   -2.2791    3.4184   -1.8900 H   0  0  0  0  0  0  0  0  0  0  0  0
   -3.9970    3.9996   -1.6853 H   0  0  0  0  0  0  0  0  0  0  0  0
   -3.9854    1.7925   -1.0365 H   0  0  0  0  0  0  0  0  0  0  0  0
   -4.3205    2.6785    1.4655 H   0  0  0  0  0  0  0  0  0  0  0  0
   -1.3291    0.8654   -1.1035 H   0  0  0  0  0  0  0  0  0  0  0  0
   -0.7927    0.7894    1.9368 H   0  0  0  0  0  0  0  0  0  0  0  0
   -0.6358   -1.5560    1.9128 H   0  0  0  0  0  0  0  0  0  0  0  0
   -2.2885   -0.9484    1.4043 H   0  0  0  0  0  0  0  0  0  0  0  0
   -1.7737   -1.2358   -0.9430 H   0  0  0  0  0  0  0  0  0  0  0  0
   -0.2114   -1.9613   -0.6369 H   0  0  0  0  0  0  0  0  0  0  0  0
   -2.1828   -3.2170    1.9877 H   0  0  0  0  0  0  0  0  0  0  0  0
   -3.2210   -5.4291    1.9667 H   0  0  0  0  0  0  0  0  0  0  0  0
   -3.4722   -6.6534   -0.1597 H   0  0  0  0  0  0  0  0  0  0  0  0
   -2.6982   -5.6391   -2.2401 H   0  0  0  0  0  0  0  0  0  0  0  0
   -1.6479   -3.3945   -2.2483 H   0  0  0  0  0  0  0  0  0  0  0  0
    1.3469    2.1360    0.7728 H   0  0  0  0  0  0  0  0  0  0  0  0
    3.4886    0.6314    1.6197 H   0  0  0  0  0  0  0  0  0  0  0  0
    3.6487    2.0312    0.5358 H   0  0  0  0  0  0  0  0  0  0  0  0
    3.3783   -0.9827   -0.0619 H   0  0  0  0  0  0  0  0  0  0  0  0
    3.0269    0.1148   -1.3985 H   0  0  0  0  0  0  0  0  0  0  0  0
    5.2639   -0.6512   -1.4986 H   0  0  0  0  0  0  0  0  0  0  0  0
    6.2075    1.8876   -0.5729 H   0  0  0  0  0  0  0  0  0  0  0  0
    4.5950    2.1238   -1.3322 H   0  0  0  0  0  0  0  0  0  0  0  0
    5.8980    1.3992   -2.2725 H   0  0  0  0  0  0  0  0  0  0  0  0
    6.2667    0.6834    0.9741 H   0  0  0  0  0  0  0  0  0  0  0  0
    5.2407   -0.7432    1.3034 H   0  0  0  0  0  0  0  0  0  0  0  0
    6.7089   -0.9175    0.3133 H   0  0  0  0  0  0  0  0  0  0  0  0
  1  2  2  0
  1  3  1  0
  1  4  1  0
  4  5  1  0
  5  6  1  0
  5  7  1  0
  7  8  2  0
  7  9  1  0
 10  9  1  0
 10 11  1  0
 10 19  1  0
 11 12  1  0
 12 13  1  0
 13 14  2  0
 13 18  1  0
 14 15  1  0
 15 16  2  0
 16 17  1  0
 17 18  2  0
 19 20  1  0
 19 26  2  0
 20 21  1  0
 21 22  1  0
 22 23  1  0
 23 24  1  0
 23 25  1  0
  3 27  1  0
  4 28  1  0
  4 29  1  0
  5 30  1  6
  6 31  1  0
  9 32  1  0
 10 33  1  1
 11 34  1  0
 11 35  1  0
 12 36  1  0
 12 37  1  0
 14 38  1  0
 15 39  1  0
 16 40  1  0
 17 41  1  0
 18 42  1  0
 20 43  1  0
 21 44  1  0
 21 45  1  0
 22 46  1  0
 22 47  1  0
 23 48  1  0
 24 49  1  0
 24 50  1  0
 24 51  1  0
 25 52  1  0
 25 53  1  0
 25 54  1  0
M  END

