46506104
     RDKit          3D

 91 92  0  0  1  0  0  0  0  0999 V2000
    0.2673   -1.1633    0.5648 C   0  0  1  0  0  0  0  0  0  0  0  0
    0.9896   -1.7302   -0.6120 C   0  0  0  0  0  0  0  0  0  0  0  0
    1.9155   -1.0720   -1.3103 C   0  0  0  0  0  0  0  0  0  0  0  0
   -0.9791    1.0132    0.1730 C   0  0  2  0  0  0  0  0  0  0  0  0
    2.0996    0.3656   -1.1957 C   0  0  0  0  0  0  0  0  0  0  0  0
    1.5071    1.0543   -0.0314 C   0  0  2  0  0  0  0  0  0  0  0  0
    0.2147    1.6399   -0.5387 C   0  0  0  0  0  0  0  0  0  0  0  0
    0.1563   -2.0655    1.7124 C   0  0  0  0  0  0  0  0  0  0  0  0
    0.7105   -3.0022   -1.0329 O   0  0  0  0  0  0  0  0  0  0  0  0
    0.5699   -1.5645    2.8005 O   0  0  0  0  0  0  0  0  0  0  0  0
   -0.3151   -3.4123    1.9234 C   0  0  0  0  0  0  0  0  0  0  0  0
    2.7283    0.9903   -2.0422 O   0  0  0  0  0  0  0  0  0  0  0  0
    2.4419    2.0430    0.5978 C   0  0  0  0  0  0  0  0  0  0  0  0
    2.8919    3.1468   -0.2376 C   0  0  0  0  0  0  0  0  0  0  0  0
    2.7262    4.3997    0.1533 C   0  0  0  0  0  0  0  0  0  0  0  0
    3.1911    5.5050   -0.7182 C   0  0  0  0  0  0  0  0  0  0  0  0
    2.1083    4.6940    1.4557 C   0  0  0  0  0  0  0  0  0  0  0  0
    2.8330   -1.7511   -2.2676 C   0  0  0  0  0  0  0  0  0  0  0  0
    4.2278   -1.5159   -1.7979 C   0  0  0  0  0  0  0  0  0  0  0  0
    5.0555   -2.4869   -1.4706 C   0  0  0  0  0  0  0  0  0  0  0  0
    4.6090   -3.9040   -1.5620 C   0  0  0  0  0  0  0  0  0  0  0  0
    6.4433   -2.2275   -1.0047 C   0  0  0  0  0  0  0  0  0  0  0  0
   -1.3109    1.7246    1.4408 C   0  0  0  0  0  0  0  0  0  0  0  0
   -1.7294    3.1625    1.2124 C   0  0  0  0  0  0  0  0  0  0  0  0
   -2.9038    3.5677    1.6143 C   0  0  0  0  0  0  0  0  0  0  0  0
   -3.8318    2.6387    2.2910 C   0  0  0  0  0  0  0  0  0  0  0  0
   -3.2833    4.9854    1.3745 C   0  0  0  0  0  0  0  0  0  0  0  0
    1.1733   -0.0023    0.9431 C   0  0  0  0  0  0  0  0  0  0  0  0
    1.6513    0.0861    2.0614 O   0  0  0  0  0  0  0  0  0  0  0  0
   -0.3217   -3.7001    3.4491 C   0  0  0  0  0  0  0  0  0  0  0  0
    0.3914   -4.5717    1.3552 C   0  0  0  0  0  0  0  0  0  0  0  0
   -1.0277   -0.4642    0.1411 C   0  0  1  0  0  0  0  0  0  0  0  0
   -1.3826   -0.8978   -1.2596 C   0  0  0  0  0  0  0  0  0  0  0  0
   -2.5712   -0.3481   -1.8938 C   0  0  0  0  0  0  0  0  0  0  0  0
   -3.8935   -0.5458   -1.3090 C   0  0  0  0  0  0  0  0  0  0  0  0
   -4.8725   -1.2344   -1.8759 C   0  0  0  0  0  0  0  0  0  0  0  0
   -6.1686   -1.3798   -1.2136 C   0  0  0  0  0  0  0  0  0  0  0  0
   -4.6290   -1.8515   -3.1897 C   0  0  0  0  0  0  0  0  0  0  0  0
   -2.0676   -0.9428    1.1305 C   0  0  0  0  0  0  0  0  0  0  0  0
   -1.8244    1.3931   -0.5266 H   0  0  0  0  0  0  0  0  0  0  0  0
    0.2166    2.7024   -0.3389 H   0  0  0  0  0  0  0  0  0  0  0  0
    0.0592    1.4867   -1.6245 H   0  0  0  0  0  0  0  0  0  0  0  0
    1.3227   -3.7511   -1.2338 H   0  0  0  0  0  0  0  0  0  0  0  0
   -1.3836   -3.4962    1.6529 H   0  0  0  0  0  0  0  0  0  0  0  0
    2.0267    2.4133    1.5679 H   0  0  0  0  0  0  0  0  0  0  0  0
    3.3575    1.4669    0.9138 H   0  0  0  0  0  0  0  0  0  0  0  0
    3.3816    2.9540   -1.1978 H   0  0  0  0  0  0  0  0  0  0  0  0
    2.3267    5.9895   -1.2564 H   0  0  0  0  0  0  0  0  0  0  0  0
    3.6571    6.3303   -0.1401 H   0  0  0  0  0  0  0  0  0  0  0  0
    3.8806    5.0895   -1.4705 H   0  0  0  0  0  0  0  0  0  0  0  0
    2.7096    4.3111    2.3108 H   0  0  0  0  0  0  0  0  0  0  0  0
    1.1252    4.2091    1.5413 H   0  0  0  0  0  0  0  0  0  0  0  0
    1.9774    5.8022    1.5788 H   0  0  0  0  0  0  0  0  0  0  0  0
    2.7592   -1.1580   -3.2279 H   0  0  0  0  0  0  0  0  0  0  0  0
    2.6227   -2.8062   -2.4283 H   0  0  0  0  0  0  0  0  0  0  0  0
    4.5711   -0.4940   -1.7248 H   0  0  0  0  0  0  0  0  0  0  0  0
    3.7412   -4.0164   -0.8740 H   0  0  0  0  0  0  0  0  0  0  0  0
    5.4072   -4.6128   -1.2769 H   0  0  0  0  0  0  0  0  0  0  0  0
    4.2965   -4.1809   -2.5882 H   0  0  0  0  0  0  0  0  0  0  0  0
    6.6894   -2.7981   -0.0778 H   0  0  0  0  0  0  0  0  0  0  0  0
    7.2046   -2.5274   -1.7593 H   0  0  0  0  0  0  0  0  0  0  0  0
    6.6185   -1.1568   -0.7806 H   0  0  0  0  0  0  0  0  0  0  0  0
   -1.9191    1.2374    2.1745 H   0  0  0  0  0  0  0  0  0  0  0  0
   -0.3041    1.8778    1.9697 H   0  0  0  0  0  0  0  0  0  0  0  0
   -1.0126    3.7941    0.7103 H   0  0  0  0  0  0  0  0  0  0  0  0
   -3.3197    2.2640    3.2137 H   0  0  0  0  0  0  0  0  0  0  0  0
   -4.1151    1.7722    1.6949 H   0  0  0  0  0  0  0  0  0  0  0  0
   -4.7775    3.1614    2.5657 H   0  0  0  0  0  0  0  0  0  0  0  0
   -3.3914    5.1251    0.2651 H   0  0  0  0  0  0  0  0  0  0  0  0
   -2.4290    5.6047    1.7317 H   0  0  0  0  0  0  0  0  0  0  0  0
   -4.2217    5.2285    1.9034 H   0  0  0  0  0  0  0  0  0  0  0  0
   -0.5524   -2.7433    3.9590 H   0  0  0  0  0  0  0  0  0  0  0  0
   -1.1077   -4.4157    3.7072 H   0  0  0  0  0  0  0  0  0  0  0  0
    0.6753   -4.0411    3.7632 H   0  0  0  0  0  0  0  0  0  0  0  0
    0.4170   -5.4067    2.1226 H   0  0  0  0  0  0  0  0  0  0  0  0
   -0.0423   -5.0773    0.4819 H   0  0  0  0  0  0  0  0  0  0  0  0
    1.4681   -4.4098    1.1554 H   0  0  0  0  0  0  0  0  0  0  0  0
   -1.3496   -2.0245   -1.3421 H   0  0  0  0  0  0  0  0  0  0  0  0
   -0.4840   -0.5858   -1.8873 H   0  0  0  0  0  0  0  0  0  0  0  0
   -2.5220    0.7493   -2.1869 H   0  0  0  0  0  0  0  0  0  0  0  0
   -2.6758   -0.8008   -2.9649 H   0  0  0  0  0  0  0  0  0  0  0  0
   -4.1394   -0.0971   -0.3586 H   0  0  0  0  0  0  0  0  0  0  0  0
   -6.9941   -1.1197   -1.9389 H   0  0  0  0  0  0  0  0  0  0  0  0
   -6.3141   -0.6915   -0.3534 H   0  0  0  0  0  0  0  0  0  0  0  0
   -6.3792   -2.3957   -0.8292 H   0  0  0  0  0  0  0  0  0  0  0  0
   -4.5190   -1.0997   -4.0037 H   0  0  0  0  0  0  0  0  0  0  0  0
   -3.7765   -2.5634   -3.1678 H   0  0  0  0  0  0  0  0  0  0  0  0
   -5.5130   -2.4615   -3.4636 H   0  0  0  0  0  0  0  0  0  0  0  0
   -1.6057   -1.2244    2.1234 H   0  0  0  0  0  0  0  0  0  0  0  0
   -2.8240   -0.2059    1.4164 H   0  0  0  0  0  0  0  0  0  0  0  0
   -2.6297   -1.7840    0.6679 H   0  0  0  0  0  0  0  0  0  0  0  0
  1  8  1  1
  1 28  1  0
  2  9  1  0
  5 12  2  0
  6 13  1  1
  6 28  1  0
  3 18  1  0
  4 23  1  0
  8 10  2  0
  8 11  1  0
 13 14  1  0
 14 15  2  3
 15 16  1  0
 15 17  1  0
 18 19  1  0
 19 20  2  3
 20 21  1  0
 20 22  1  0
 23 24  1  0
 24 25  2  3
 25 26  1  0
 25 27  1  0
 28 29  2  0
 11 30  1  0
 11 31  1  0
 32 33  1  6
 32 39  1  0
 33 34  1  0
 34 35  1  0
 35 36  2  3
 36 37  1  0
 36 38  1  0
  4  7  1  0
  1  2  1  0
  2  3  2  0
  3  5  1  0
  5  6  1  0
  6  7  1  0
  1 32  1  0
  4 32  1  0
  4 40  1  6
  7 41  1  0
  7 42  1  0
  9 43  1  0
 11 44  1  0
 13 45  1  0
 13 46  1  0
 14 47  1  0
 16 48  1  0
 16 49  1  0
 16 50  1  0
 17 51  1  0
 17 52  1  0
 17 53  1  0
 18 54  1  0
 18 55  1  0
 19 56  1  0
 21 57  1  0
 21 58  1  0
 21 59  1  0
 22 60  1  0
 22 61  1  0
 22 62  1  0
 23 63  1  0
 23 64  1  0
 24 65  1  0
 26 66  1  0
 26 67  1  0
 26 68  1  0
 27 69  1  0
 27 70  1  0
 27 71  1  0
 30 72  1  0
 30 73  1  0
 30 74  1  0
 31 75  1  0
 31 76  1  0
 31 77  1  0
 33 78  1  0
 33 79  1  0
 34 80  1  0
 34 81  1  0
 35 82  1  0
 37 83  1  0
 37 84  1  0
 37 85  1  0
 38 86  1  0
 38 87  1  0
 38 88  1  0
 39 89  1  0
 39 90  1  0
 39 91  1  0
M  END

