46507972
     RDKit          3D

 32 34  0  0  1  0  0  0  0  0999 V2000
   -1.3209    0.1133   -1.3198 O   0  0  0  0  0  0  0  0  0  0  0  0
   -1.5167   -2.6375   -0.4071 O   0  0  0  0  0  0  0  0  0  0  0  0
   -2.8892   -1.3306    1.4180 O   0  0  0  0  0  0  0  0  0  0  0  0
   -3.5445    2.1423   -0.8222 O   0  0  0  0  0  0  0  0  0  0  0  0
    4.7376    2.0701    0.5977 O   0  0  0  0  0  0  0  0  0  0  0  0
    1.9504    2.0903   -0.1528 N   0  0  0  0  0  0  0  0  0  0  0  0
    2.6524   -1.3325    0.0795 N   0  0  0  0  0  0  0  0  0  0  0  0
    4.6397   -0.2371    0.6340 N   0  0  0  0  0  0  0  0  0  0  0  0
   -0.2261   -0.7289   -0.8887 C   0  0  2  0  0  0  0  0  0  0  0  0
   -0.8339   -1.5667    0.1821 C   0  0  1  0  0  0  0  0  0  0  0  0
   -1.8157   -0.6487    0.8507 C   0  0  1  0  0  0  0  0  0  0  0  0
   -2.3082    0.0905   -0.4058 C   0  0  1  0  0  0  0  0  0  0  0  0
    0.7834    0.2530   -0.4410 C   0  0  0  0  0  0  0  0  0  0  0  0
   -2.9213    1.3506    0.0957 C   0  0  0  0  0  0  0  0  0  0  0  0
    2.0904   -0.1277   -0.1184 C   0  0  0  0  0  0  0  0  0  0  0  0
    0.7263    1.6403   -0.4517 C   0  0  0  0  0  0  0  0  0  0  0  0
    2.7911    1.0546    0.0571 C   0  0  0  0  0  0  0  0  0  0  0  0
    4.1123    0.9709    0.4451 C   0  0  0  0  0  0  0  0  0  0  0  0
    3.9404   -1.3755    0.4588 C   0  0  0  0  0  0  0  0  0  0  0  0
   -1.2693   -2.7028   -1.3848 H   0  0  0  0  0  0  0  0  0  0  0  0
   -3.5309   -1.5637    0.6786 H   0  0  0  0  0  0  0  0  0  0  0  0
   -4.4465    2.3979   -0.4238 H   0  0  0  0  0  0  0  0  0  0  0  0
    2.2296    3.0984   -0.0935 H   0  0  0  0  0  0  0  0  0  0  0  0
    2.0662   -2.1835   -0.0677 H   0  0  0  0  0  0  0  0  0  0  0  0
    0.1223   -1.2888   -1.7263 H   0  0  0  0  0  0  0  0  0  0  0  0
   -0.1041   -1.9171    0.9331 H   0  0  0  0  0  0  0  0  0  0  0  0
   -1.2987    0.0270    1.5415 H   0  0  0  0  0  0  0  0  0  0  0  0
   -3.1506   -0.5177   -0.8381 H   0  0  0  0  0  0  0  0  0  0  0  0
   -2.2015    1.9462    0.7318 H   0  0  0  0  0  0  0  0  0  0  0  0
   -3.6889    1.0152    0.8708 H   0  0  0  0  0  0  0  0  0  0  0  0
   -0.1517    2.2530   -0.6589 H   0  0  0  0  0  0  0  0  0  0  0  0
    4.3764   -2.3549    0.6261 H   0  0  0  0  0  0  0  0  0  0  0  0
  1  9  1  0
  1 12  1  0
 10  2  1  0
 11  3  1  0
  4 14  1  0
  5 18  2  0
  6 16  1  0
  6 17  1  0
  7 15  1  0
  7 19  1  0
  8 18  1  0
  8 19  2  0
  9 10  1  0
  9 13  1  0
 10 11  1  0
 11 12  1  0
 12 14  1  0
 13 15  1  0
 13 16  2  0
 15 17  2  0
 17 18  1  0
  2 20  1  0
  3 21  1  0
  4 22  1  0
  6 23  1  0
  7 24  1  0
  9 25  1  6
 10 26  1  1
 11 27  1  1
 12 28  1  6
 14 29  1  0
 14 30  1  0
 16 31  1  0
 19 32  1  0
M  END

