46505711
     RDKit          3D

 33 34  0  0  1  0  0  0  0  0999 V2000
    1.6563    1.0221    0.9945 O   0  0  0  0  0  0  0  0  0  0  0  0
    4.7961   -0.7508   -1.1193 O   0  0  0  0  0  0  0  0  0  0  0  0
    3.1567    2.3219    2.0642 O   0  0  0  0  0  0  0  0  0  0  0  0
    1.3697    0.4533   -0.3418 C   0  0  0  0  0  0  0  0  0  0  0  0
    2.3486   -0.5999   -0.6193 C   0  0  0  0  0  0  0  0  0  0  0  0
   -0.0284   -0.0858   -0.0809 C   0  0  0  0  0  0  0  0  0  0  0  0
   -4.6247   -1.0118    0.5616 C   0  0  0  0  0  0  0  0  0  0  0  0
    3.7703   -0.2091   -0.4502 C   0  0  0  0  0  0  0  0  0  0  0  0
   -2.3817    0.1376    0.0418 C   0  0  0  0  0  0  0  0  0  0  0  0
   -5.5501    0.1310   -0.0371 C   0  0  0  0  0  0  0  0  0  0  0  0
   -1.1032    0.7785   -0.2495 C   0  0  0  0  0  0  0  0  0  0  0  0
   -3.3682   -0.3569    0.2666 C   0  0  0  0  0  0  0  0  0  0  0  0
   -3.3980    1.4373   -0.6453 C   0  0  0  0  0  0  0  0  0  0  0  0
   -4.6500    1.2230   -0.5653 C   0  0  0  0  0  0  0  0  0  0  0  0
    4.0671    0.7965    0.4751 C   0  0  0  0  0  0  0  0  0  0  0  0
    2.9697    1.3519    1.1510 C   0  0  0  0  0  0  0  0  0  0  0  0
    5.7921   -1.6290   -0.7739 C   0  0  0  0  0  0  0  0  0  0  0  0
    1.3999    1.2883   -1.0157 H   0  0  0  0  0  0  0  0  0  0  0  0
    2.2398   -0.8874   -1.7055 H   0  0  0  0  0  0  0  0  0  0  0  0
    2.1684   -1.5452   -0.0339 H   0  0  0  0  0  0  0  0  0  0  0  0
   -0.2331   -1.0769    0.1715 H   0  0  0  0  0  0  0  0  0  0  0  0
   -4.8550   -1.9158   -0.0039 H   0  0  0  0  0  0  0  0  0  0  0  0
   -4.9529   -1.0351    1.6048 H   0  0  0  0  0  0  0  0  0  0  0  0
   -6.1880    0.5356    0.7365 H   0  0  0  0  0  0  0  0  0  0  0  0
   -6.0568   -0.2857   -0.9208 H   0  0  0  0  0  0  0  0  0  0  0  0
   -0.8495    1.7251   -0.5389 H   0  0  0  0  0  0  0  0  0  0  0  0
   -2.6813   -1.4405    0.8868 H   0  0  0  0  0  0  0  0  0  0  0  0
   -2.8754    2.2011   -1.0437 H   0  0  0  0  0  0  0  0  0  0  0  0
   -5.3034    2.0917   -0.9807 H   0  0  0  0  0  0  0  0  0  0  0  0
    5.0543    1.1270    0.6461 H   0  0  0  0  0  0  0  0  0  0  0  0
    6.4840   -1.8656   -1.6439 H   0  0  0  0  0  0  0  0  0  0  0  0
    6.4765   -1.3144    0.0539 H   0  0  0  0  0  0  0  0  0  0  0  0
    5.3500   -2.6118   -0.4258 H   0  0  0  0  0  0  0  0  0  0  0  0
  1  4  1  0
  1 16  1  0
  2  8  1  0
  2 17  1  0
  3 16  2  0
  4  5  1  0
  4  6  1  0
  5  8  1  0
  6 11  2  0
  7 10  1  0
  7 12  1  0
  8 15  2  0
  9 11  1  0
  9 12  2  0
  9 13  1  0
 10 14  1  0
 13 14  2  0
 15 16  1  0
  4 18  1  0
  5 19  1  0
  5 20  1  0
  6 21  1  0
  7 22  1  0
  7 23  1  0
 10 24  1  0
 10 25  1  0
 11 26  1  0
 12 27  1  0
 13 28  1  0
 14 29  1  0
 15 30  1  0
 17 31  1  0
 17 32  1  0
 17 33  1  0
M  END

