46505091
     RDKit          3D

 24 24  0  0  1  0  0  0  0  0999 V2000
    0.2453    1.3974    0.4278 C   0  0  0  0  0  0  0  0  0  0  0  0
    2.5010    0.4778    0.5909 C   0  0  0  0  0  0  0  0  0  0  0  0
    1.0795    0.4363    0.1448 C   0  0  0  0  0  0  0  0  0  0  0  0
   -1.1537    1.3271   -0.0276 C   0  0  1  0  0  0  0  0  0  0  0  0
    0.6305   -0.7354   -0.6377 C   0  0  2  0  0  0  0  0  0  0  0  0
   -1.7266   -0.0520   -0.0485 C   0  0  1  0  0  0  0  0  0  0  0  0
   -0.7840   -1.1314   -0.4215 C   0  0  1  0  0  0  0  0  0  0  0  0
    2.7903   -0.6074    1.4036 O   0  0  0  0  0  0  0  0  0  0  0  0
   -1.9449    2.1703    0.7534 O   0  0  0  0  0  0  0  0  0  0  0  0
    1.4408   -1.8150   -0.2907 O   0  0  0  0  0  0  0  0  0  0  0  0
   -2.2986   -0.3621    1.2097 O   0  0  0  0  0  0  0  0  0  0  0  0
   -1.2412   -1.7122   -1.6294 O   0  0  0  0  0  0  0  0  0  0  0  0
    0.5661    2.2542    0.9971 H   0  0  0  0  0  0  0  0  0  0  0  0
    3.1669    0.4757   -0.3217 H   0  0  0  0  0  0  0  0  0  0  0  0
    2.6726    1.4531    1.0704 H   0  0  0  0  0  0  0  0  0  0  0  0
   -1.2320    1.7382   -1.0766 H   0  0  0  0  0  0  0  0  0  0  0  0
    0.8102   -0.5408   -1.7180 H   0  0  0  0  0  0  0  0  0  0  0  0
   -2.6207   -0.0133   -0.7404 H   0  0  0  0  0  0  0  0  0  0  0  0
   -0.8342   -1.9861    0.3167 H   0  0  0  0  0  0  0  0  0  0  0  0
    3.4411   -1.1939    0.9180 H   0  0  0  0  0  0  0  0  0  0  0  0
   -1.9008    3.1047    0.3890 H   0  0  0  0  0  0  0  0  0  0  0  0
    0.9655   -2.6594   -0.2049 H   0  0  0  0  0  0  0  0  0  0  0  0
   -2.9947   -1.0800    1.0670 H   0  0  0  0  0  0  0  0  0  0  0  0
   -1.5782   -0.9458   -2.1715 H   0  0  0  0  0  0  0  0  0  0  0  0
  1  3  2  0
  2  3  1  0
  1  4  1  0
  3  5  1  0
  4  6  1  0
  5  7  1  0
  6  7  1  0
  2  8  1  0
  4  9  1  0
  5 10  1  0
  6 11  1  0
  7 12  1  0
  1 13  1  0
  2 14  1  0
  2 15  1  0
  4 16  1  6
  5 17  1  6
  6 18  1  6
  7 19  1  1
  8 20  1  0
  9 21  1  0
 10 22  1  0
 11 23  1  0
 12 24  1  0
M  END

