46504756
     RDKit          3D

 55 57  0  0  1  0  0  0  0  0999 V2000
   -4.4294   -0.7127   -2.7881 O   0  0  0  0  0  0  0  0  0  0  0  0
    2.9072    1.6858    2.0812 O   0  0  0  0  0  0  0  0  0  0  0  0
    6.4548    3.3024   -0.6040 O   0  0  0  0  0  0  0  0  0  0  0  0
    4.8086    2.2913   -1.7876 O   0  0  0  0  0  0  0  0  0  0  0  0
    7.1205   -1.4063   -2.1043 O   0  0  0  0  0  0  0  0  0  0  0  0
    7.4361    0.7628   -1.6421 O   0  0  0  0  0  0  0  0  0  0  0  0
   -3.9398   -1.1883   -0.1559 N   0  0  0  0  0  0  0  0  0  0  0  0
   -5.3144    0.3245    1.7368 N   0  0  0  0  0  0  0  0  0  0  0  0
   -1.6855   -2.5659    0.6416 N   0  0  0  0  0  0  0  0  0  0  0  0
   -6.4077    1.4639   -0.1074 N   0  0  0  0  0  0  0  0  0  0  0  0
   -5.9571    0.9369   -2.3270 N   0  0  0  0  0  0  0  0  0  0  0  0
    3.9831    0.6292    0.2856 N   0  0  0  0  0  0  0  0  0  0  0  0
   -7.5591    2.6653   -1.8784 N   0  0  0  0  0  0  0  0  0  0  0  0
   -3.5212   -1.1537    1.2279 C   0  0  0  0  0  0  0  0  0  0  0  0
   -4.7071   -0.9369    2.1484 C   0  0  0  0  0  0  0  0  0  0  0  0
   -2.8219   -2.4571    1.5211 C   0  0  0  0  0  0  0  0  0  0  0  0
   -4.8552   -0.2130   -0.6124 C   0  0  0  0  0  0  0  0  0  0  0  0
   -5.5346    0.5346    0.3266 C   0  0  0  0  0  0  0  0  0  0  0  0
   -0.5617   -1.7102    0.7831 C   0  0  0  0  0  0  0  0  0  0  0  0
   -5.0692   -0.0096   -1.9747 C   0  0  0  0  0  0  0  0  0  0  0  0
   -6.6363    1.6838   -1.4331 C   0  0  0  0  0  0  0  0  0  0  0  0
    5.1652    1.4908    0.4324 C   0  0  1  0  0  0  0  0  0  0  0  0
    6.2467    0.6044    0.9579 C   0  0  0  0  0  0  0  0  0  0  0  0
    0.3995   -1.6410   -0.2158 C   0  0  0  0  0  0  0  0  0  0  0  0
   -0.3230   -0.9196    1.8867 C   0  0  0  0  0  0  0  0  0  0  0  0
    1.7195   -0.0569    1.0135 C   0  0  0  0  0  0  0  0  0  0  0  0
    1.5265   -0.8256   -0.1047 C   0  0  0  0  0  0  0  0  0  0  0  0
    0.7778   -0.1103    2.0172 C   0  0  0  0  0  0  0  0  0  0  0  0
    6.5257   -0.5649    0.1116 C   0  0  0  0  0  0  0  0  0  0  0  0
    2.9090    0.8101    1.1613 C   0  0  0  0  0  0  0  0  0  0  0  0
    5.4370    2.3446   -0.7017 C   0  0  0  0  0  0  0  0  0  0  0  0
    7.0461   -0.3122   -1.2076 C   0  0  0  0  0  0  0  0  0  0  0  0
    6.7242    3.8831   -1.3868 H   0  0  0  0  0  0  0  0  0  0  0  0
    7.2788   -1.3074   -3.0831 H   0  0  0  0  0  0  0  0  0  0  0  0
   -3.5862   -1.8998   -0.8016 H   0  0  0  0  0  0  0  0  0  0  0  0
   -5.5990    1.0771    2.3682 H   0  0  0  0  0  0  0  0  0  0  0  0
   -1.6777   -3.2770   -0.1088 H   0  0  0  0  0  0  0  0  0  0  0  0
   -6.9410    2.0498    0.5634 H   0  0  0  0  0  0  0  0  0  0  0  0
    3.9739   -0.0820   -0.4505 H   0  0  0  0  0  0  0  0  0  0  0  0
   -7.2114    3.6149   -2.0755 H   0  0  0  0  0  0  0  0  0  0  0  0
   -8.5534    2.3832   -1.9877 H   0  0  0  0  0  0  0  0  0  0  0  0
   -2.8618   -0.2765    1.3685 H   0  0  0  0  0  0  0  0  0  0  0  0
   -5.4287   -1.7772    2.0608 H   0  0  0  0  0  0  0  0  0  0  0  0
   -4.3365   -0.8903    3.1772 H   0  0  0  0  0  0  0  0  0  0  0  0
   -3.5328   -3.2858    1.3818 H   0  0  0  0  0  0  0  0  0  0  0  0
   -2.4774   -2.5063    2.5885 H   0  0  0  0  0  0  0  0  0  0  0  0
    4.9334    2.2253    1.3018 H   0  0  0  0  0  0  0  0  0  0  0  0
    7.1689    1.2037    1.1935 H   0  0  0  0  0  0  0  0  0  0  0  0
    5.8653    0.2119    1.9502 H   0  0  0  0  0  0  0  0  0  0  0  0
    0.2408   -2.2545   -1.1022 H   0  0  0  0  0  0  0  0  0  0  0  0
   -1.0734   -0.9725    2.6980 H   0  0  0  0  0  0  0  0  0  0  0  0
    2.2291   -0.8240   -0.9307 H   0  0  0  0  0  0  0  0  0  0  0  0
    0.9420    0.5019    2.8944 H   0  0  0  0  0  0  0  0  0  0  0  0
    5.5845   -1.2264    0.0033 H   0  0  0  0  0  0  0  0  0  0  0  0
    7.1983   -1.3173    0.6786 H   0  0  0  0  0  0  0  0  0  0  0  0
  1 20  2  0
  2 30  2  0
  3 31  1  0
  4 31  2  0
  5 32  1  0
  6 32  2  0
  7 14  1  0
  7 17  1  0
  8 15  1  0
  8 18  1  0
  9 16  1  0
  9 19  1  0
 10 18  1  0
 10 21  1  0
 11 20  1  0
 11 21  2  0
 22 12  1  0
 12 30  1  0
 13 21  1  0
 14 15  1  0
 14 16  1  0
 17 18  2  0
 17 20  1  0
 19 24  2  0
 19 25  1  0
 22 23  1  0
 22 31  1  0
 23 29  1  0
 24 27  1  0
 25 28  2  0
 26 27  2  0
 26 28  1  0
 26 30  1  0
 29 32  1  0
  3 33  1  0
  5 34  1  0
  7 35  1  0
  8 36  1  0
  9 37  1  0
 10 38  1  0
 12 39  1  0
 13 40  1  0
 13 41  1  0
 14 42  1  0
 15 43  1  0
 15 44  1  0
 16 45  1  0
 16 46  1  0
 22 47  1  1
 23 48  1  0
 23 49  1  0
 24 50  1  0
 25 51  1  0
 27 52  1  0
 28 53  1  0
 29 54  1  0
 29 55  1  0
M  END

