46505817
     RDKit          3D

 21 21  0  0  1  0  0  0  0  0999 V2000
   -0.9952   -0.8516   -0.1251 C   0  0  1  0  0  0  0  0  0  0  0  0
    0.4038   -0.9967   -0.5668 C   0  0  0  0  0  0  0  0  0  0  0  0
   -1.2742    0.6229    0.0154 C   0  0  2  0  0  0  0  0  0  0  0  0
    1.3066   -0.0805   -0.2191 C   0  0  0  0  0  0  0  0  0  0  0  0
    2.6858   -0.2162   -0.6499 C   0  0  0  0  0  0  0  0  0  0  0  0
   -0.3192    1.0954    1.1187 C   0  0  2  0  0  0  0  0  0  0  0  0
   -1.8989   -1.4995   -0.9461 O   0  0  0  0  0  0  0  0  0  0  0  0
    0.8547   -2.0664   -1.3503 O   0  0  0  0  0  0  0  0  0  0  0  0
   -2.5893    0.9026    0.3417 O   0  0  0  0  0  0  0  0  0  0  0  0
    3.6488    0.7131   -0.3090 O   0  0  0  0  0  0  0  0  0  0  0  0
    3.0183   -1.1975   -1.3482 O   0  0  0  0  0  0  0  0  0  0  0  0
   -0.6461    2.3356    1.5968 O   0  0  0  0  0  0  0  0  0  0  0  0
    0.9744    1.0251    0.5571 O   0  0  0  0  0  0  0  0  0  0  0  0
   -1.0741   -1.3168    0.8802 H   0  0  0  0  0  0  0  0  0  0  0  0
   -0.9769    1.0985   -0.9503 H   0  0  0  0  0  0  0  0  0  0  0  0
   -0.3470    0.3451    1.9592 H   0  0  0  0  0  0  0  0  0  0  0  0
   -2.7569   -1.5895   -0.4622 H   0  0  0  0  0  0  0  0  0  0  0  0
    0.2248   -2.8188   -1.6139 H   0  0  0  0  0  0  0  0  0  0  0  0
   -3.1957    0.3894   -0.2137 H   0  0  0  0  0  0  0  0  0  0  0  0
    3.4654    1.6997   -0.3063 H   0  0  0  0  0  0  0  0  0  0  0  0
   -0.5092    2.4062    2.5917 H   0  0  0  0  0  0  0  0  0  0  0  0
  1  2  1  0
  1  3  1  0
  2  4  2  0
  4  5  1  0
  3  6  1  0
  1  7  1  0
  2  8  1  0
  3  9  1  0
  5 10  1  0
  5 11  2  0
  6 12  1  0
  4 13  1  0
  6 13  1  0
  1 14  1  1
  3 15  1  6
  6 16  1  1
  7 17  1  0
  8 18  1  0
  9 19  1  0
 10 20  1  0
 12 21  1  0
M  END

