46508739
     RDKit          3D

 25 24  0  0  1  0  0  0  0  0999 V2000
    2.9955   -1.7853    0.5095 C   0  0  0  0  0  0  0  0  0  0  0  0
    1.9622   -1.0949   -0.2820 C   0  0  0  0  0  0  0  0  0  0  0  0
    1.5511   -1.6366   -1.3446 O   0  0  0  0  0  0  0  0  0  0  0  0
    1.4360    0.1493    0.1324 N   0  0  0  0  0  0  0  0  0  0  0  0
    0.4264    0.8130   -0.6509 C   0  0  1  0  0  0  0  0  0  0  0  0
   -0.8634    0.9885    0.1185 C   0  0  0  0  0  0  0  0  0  0  0  0
   -1.3665   -0.3844    0.5076 C   0  0  0  0  0  0  0  0  0  0  0  0
   -2.6374   -0.3019    1.2713 C   0  0  0  0  0  0  0  0  0  0  0  0
   -3.1702    0.8062    1.5249 O   0  0  0  0  0  0  0  0  0  0  0  0
   -3.2681   -1.4853    1.7264 N   0  0  0  0  0  0  0  0  0  0  0  0
    0.8826    2.1731   -1.0473 C   0  0  0  0  0  0  0  0  0  0  0  0
    1.9845    2.6452   -0.7333 O   0  0  0  0  0  0  0  0  0  0  0  0
    0.0053    2.9318   -1.8102 O   0  0  0  0  0  0  0  0  0  0  0  0
    3.9270   -1.1859    0.4456 H   0  0  0  0  0  0  0  0  0  0  0  0
    3.1618   -2.7992    0.1475 H   0  0  0  0  0  0  0  0  0  0  0  0
    2.7145   -1.7953    1.5871 H   0  0  0  0  0  0  0  0  0  0  0  0
    1.7924    0.5833    1.0207 H   0  0  0  0  0  0  0  0  0  0  0  0
    0.1928    0.1987   -1.5350 H   0  0  0  0  0  0  0  0  0  0  0  0
   -0.7006    1.5746    1.0532 H   0  0  0  0  0  0  0  0  0  0  0  0
   -1.5968    1.4912   -0.5246 H   0  0  0  0  0  0  0  0  0  0  0  0
   -1.5814   -0.9424   -0.4401 H   0  0  0  0  0  0  0  0  0  0  0  0
   -0.5891   -0.9240    1.0725 H   0  0  0  0  0  0  0  0  0  0  0  0
   -3.9695   -1.4995    2.4924 H   0  0  0  0  0  0  0  0  0  0  0  0
   -3.0247   -2.3921    1.2788 H   0  0  0  0  0  0  0  0  0  0  0  0
   -0.2644    3.8720   -1.6098 H   0  0  0  0  0  0  0  0  0  0  0  0
  1  2  1  0
  2  3  2  0
  2  4  1  0
  5  4  1  0
  5  6  1  0
  6  7  1  0
  7  8  1  0
  8  9  2  0
  8 10  1  0
  5 11  1  0
 11 12  2  0
 11 13  1  0
  1 14  1  0
  1 15  1  0
  1 16  1  0
  4 17  1  0
  5 18  1  6
  6 19  1  0
  6 20  1  0
  7 21  1  0
  7 22  1  0
 10 23  1  0
 10 24  1  0
 13 25  1  0
M  END

