46505330
     RDKit          3D

 30 31  0  0  0  0  0  0  0  0999 V2000
    4.6844    0.4359   -1.4177 O   0  0  0  0  0  0  0  0  0  0  0  0
    1.0104   -0.7235    0.9541 O   0  0  0  0  0  0  0  0  0  0  0  0
   -0.8492   -0.3080   -1.0054 N   0  0  0  0  0  0  0  0  0  0  0  0
    0.5027   -0.0925   -1.2186 N   0  0  0  0  0  0  0  0  0  0  0  0
    3.3906    0.3486   -1.5450 N   0  0  0  0  0  0  0  0  0  0  0  0
   -1.4380    0.7067   -0.1493 C   0  0  0  0  0  0  0  0  0  0  0  0
   -2.8616    0.3377   -0.0035 C   0  0  0  0  0  0  0  0  0  0  0  0
   -3.7781    0.8535   -0.8805 C   0  0  0  0  0  0  0  0  0  0  0  0
   -3.2218   -0.5149    1.0099 C   0  0  0  0  0  0  0  0  0  0  0  0
    2.8263   -0.0980   -0.4031 C   0  0  0  0  0  0  0  0  0  0  0  0
    1.4138   -0.3247   -0.1701 C   0  0  0  0  0  0  0  0  0  0  0  0
   -5.1193    0.5284   -0.7740 C   0  0  0  0  0  0  0  0  0  0  0  0
   -4.5823   -0.8343    1.1043 C   0  0  0  0  0  0  0  0  0  0  0  0
    3.8699   -0.2938    0.4799 C   0  0  0  0  0  0  0  0  0  0  0  0
    5.0118    0.0542   -0.2011 C   0  0  0  0  0  0  0  0  0  0  0  0
   -5.5160   -0.3300    0.2388 C   0  0  0  0  0  0  0  0  0  0  0  0
    6.4024    0.0186    0.3183 C   0  0  0  0  0  0  0  0  0  0  0  0
   -1.0474   -1.2542   -0.6546 H   0  0  0  0  0  0  0  0  0  0  0  0
    0.8435    0.2351   -2.1355 H   0  0  0  0  0  0  0  0  0  0  0  0
   -1.3186    1.7232   -0.5756 H   0  0  0  0  0  0  0  0  0  0  0  0
   -0.9116    0.6726    0.8160 H   0  0  0  0  0  0  0  0  0  0  0  0
   -3.5129    1.5367   -1.6995 H   0  0  0  0  0  0  0  0  0  0  0  0
   -2.5174   -0.9386    1.7190 H   0  0  0  0  0  0  0  0  0  0  0  0
   -5.8306    0.9361   -1.4652 H   0  0  0  0  0  0  0  0  0  0  0  0
   -4.8802   -1.5098    1.9047 H   0  0  0  0  0  0  0  0  0  0  0  0
    3.7762   -0.6449    1.4799 H   0  0  0  0  0  0  0  0  0  0  0  0
   -6.5785   -0.5925    0.3273 H   0  0  0  0  0  0  0  0  0  0  0  0
    6.4362   -0.6170    1.2251 H   0  0  0  0  0  0  0  0  0  0  0  0
    6.7233    1.0390    0.5358 H   0  0  0  0  0  0  0  0  0  0  0  0
    7.0722   -0.3496   -0.4991 H   0  0  0  0  0  0  0  0  0  0  0  0
  1  5  1  0
  1 15  1  0
  2 11  2  0
  3  4  1  0
  3  6  1  0
  4 11  1  0
  5 10  2  0
  6  7  1  0
  7  8  2  0
  7  9  1  0
  8 12  1  0
  9 13  2  0
 10 11  1  0
 10 14  1  0
 12 16  2  0
 13 16  1  0
 14 15  2  0
 15 17  1  0
  3 18  1  0
  4 19  1  0
  6 20  1  0
  6 21  1  0
  8 22  1  0
  9 23  1  0
 12 24  1  0
 13 25  1  0
 14 26  1  0
 16 27  1  0
 17 28  1  0
 17 29  1  0
 17 30  1  0
M  END

