46505685
     RDKit          3D

 13 12  0  0  1  0  0  0  0  0999 V2000
    1.5057   -0.3666   -0.2462 C   0  0  0  0  0  0  0  0  0  0  0  0
    0.1840    0.3763   -0.2447 C   0  0  0  0  0  0  0  0  0  0  0  0
    0.3269    1.5470    0.4419 O   0  0  0  0  0  0  0  0  0  0  0  0
   -0.8737   -0.5387    0.3351 C   0  0  0  0  0  0  0  0  0  0  0  0
   -2.1240    0.0248    0.3547 O   0  0  0  0  0  0  0  0  0  0  0  0
    2.3642    0.3315   -0.0355 H   0  0  0  0  0  0  0  0  0  0  0  0
    1.6503   -0.9294   -1.1667 H   0  0  0  0  0  0  0  0  0  0  0  0
    1.5008   -1.0907    0.6128 H   0  0  0  0  0  0  0  0  0  0  0  0
   -0.0907    0.5877   -1.3022 H   0  0  0  0  0  0  0  0  0  0  0  0
   -0.5098    2.0132    0.6546 H   0  0  0  0  0  0  0  0  0  0  0  0
   -0.6027   -0.8376    1.3732 H   0  0  0  0  0  0  0  0  0  0  0  0
   -0.9241   -1.4770   -0.2553 H   0  0  0  0  0  0  0  0  0  0  0  0
   -2.4069    0.3593   -0.5217 H   0  0  0  0  0  0  0  0  0  0  0  0
  1  2  1  0
  2  3  1  0
  2  4  1  0
  4  5  1  0
  1  6  1  0
  1  7  1  0
  1  8  1  0
  2  9  1  0
  3 10  1  0
  4 11  1  0
  4 12  1  0
  5 13  1  0
M  END

