46505932
     RDKit          3D

 38 39  0  0  1  0  0  0  0  0999 V2000
    3.1286   -0.8692   -0.1050 N   0  0  0  0  0  0  0  0  0  0  0  0
   -1.8714    2.1002   -1.4899 N   0  0  0  0  0  0  0  0  0  0  0  0
   -0.3662    0.3159   -0.6441 C   0  0  0  0  0  0  0  0  0  0  0  0
    1.0201    0.4324   -0.0339 C   0  0  0  0  0  0  0  0  0  0  0  0
    1.7907   -0.7659   -0.5378 C   0  0  0  0  0  0  0  0  0  0  0  0
   -1.0714   -0.9223   -0.2706 C   0  0  0  0  0  0  0  0  0  0  0  0
   -1.1850    1.5333   -0.4742 C   0  0  0  0  0  0  0  0  0  0  0  0
   -1.6672   -1.7589   -1.2004 C   0  0  0  0  0  0  0  0  0  0  0  0
   -1.1260   -1.2404    1.0848 C   0  0  0  0  0  0  0  0  0  0  0  0
   -1.3059    2.1746    0.7581 C   0  0  0  0  0  0  0  0  0  0  0  0
    3.9930    0.1289   -0.6335 C   0  0  0  0  0  0  0  0  0  0  0  0
    3.3613   -1.2281    1.2498 C   0  0  0  0  0  0  0  0  0  0  0  0
   -2.3276   -2.9181   -0.8532 C   0  0  0  0  0  0  0  0  0  0  0  0
   -1.7856   -2.3981    1.4358 C   0  0  0  0  0  0  0  0  0  0  0  0
   -2.0732    3.3061    0.9178 C   0  0  0  0  0  0  0  0  0  0  0  0
   -2.3762   -3.2246    0.4929 C   0  0  0  0  0  0  0  0  0  0  0  0
   -2.6291    3.2040   -1.3660 C   0  0  0  0  0  0  0  0  0  0  0  0
   -2.7634    3.8538   -0.1626 C   0  0  0  0  0  0  0  0  0  0  0  0
   -0.1910    0.2335   -1.7597 H   0  0  0  0  0  0  0  0  0  0  0  0
    0.9949    0.3838    1.0672 H   0  0  0  0  0  0  0  0  0  0  0  0
    1.4524    1.3890   -0.3650 H   0  0  0  0  0  0  0  0  0  0  0  0
    1.1990   -1.6518   -0.3008 H   0  0  0  0  0  0  0  0  0  0  0  0
    1.7950   -0.6672   -1.6539 H   0  0  0  0  0  0  0  0  0  0  0  0
   -1.6072   -1.4848   -2.2628 H   0  0  0  0  0  0  0  0  0  0  0  0
   -0.6751   -0.6195    1.8499 H   0  0  0  0  0  0  0  0  0  0  0  0
   -0.7899    1.7874    1.6233 H   0  0  0  0  0  0  0  0  0  0  0  0
    3.7633    0.2368   -1.7162 H   0  0  0  0  0  0  0  0  0  0  0  0
    5.0537   -0.2459   -0.6124 H   0  0  0  0  0  0  0  0  0  0  0  0
    3.9782    1.0893   -0.1127 H   0  0  0  0  0  0  0  0  0  0  0  0
    2.4755   -1.3367    1.8876 H   0  0  0  0  0  0  0  0  0  0  0  0
    4.0998   -0.4928    1.6674 H   0  0  0  0  0  0  0  0  0  0  0  0
    3.9247   -2.2082    1.2711 H   0  0  0  0  0  0  0  0  0  0  0  0
   -2.7848   -3.5554   -1.5958 H   0  0  0  0  0  0  0  0  0  0  0  0
   -1.8290   -2.6449    2.5046 H   0  0  0  0  0  0  0  0  0  0  0  0
   -2.1785    3.8190    1.8663 H   0  0  0  0  0  0  0  0  0  0  0  0
   -2.8855   -4.1219    0.7863 H   0  0  0  0  0  0  0  0  0  0  0  0
   -3.1689    3.6293   -2.2240 H   0  0  0  0  0  0  0  0  0  0  0  0
   -3.3721    4.7373   -0.0884 H   0  0  0  0  0  0  0  0  0  0  0  0
  1  5  1  0
  1 11  1  0
  1 12  1  0
  2  7  2  0
  2 17  1  0
  3  4  1  0
  3  6  1  0
  3  7  1  0
  4  5  1  0
  6  8  2  0
  6  9  1  0
  7 10  1  0
  8 13  1  0
  9 14  2  0
 10 15  2  0
 13 16  2  0
 14 16  1  0
 15 18  1  0
 17 18  2  0
  3 19  1  0
  4 20  1  0
  4 21  1  0
  5 22  1  0
  5 23  1  0
  8 24  1  0
  9 25  1  0
 10 26  1  0
 11 27  1  0
 11 28  1  0
 11 29  1  0
 12 30  1  0
 12 31  1  0
 12 32  1  0
 13 33  1  0
 14 34  1  0
 15 35  1  0
 16 36  1  0
 17 37  1  0
 18 38  1  0
M  END

