46506641
     RDKit          3D

 70 71  0  0  1  0  0  0  0  0999 V2000
   -4.2256    3.9121   -1.3195 C   0  0  0  0  0  0  0  0  0  0  0  0
   -3.6293    2.4926   -1.1945 C   0  0  0  0  0  0  0  0  0  0  0  0
   -4.8070    1.5993   -0.9640 C   0  0  0  0  0  0  0  0  0  0  0  0
   -2.5737    2.4857   -0.1541 C   0  0  0  0  0  0  0  0  0  0  0  0
   -1.9074    1.1498    0.0138 C   0  0  2  0  0  0  0  0  0  0  0  0
   -2.8647    0.1277    0.4493 N   0  0  0  0  0  0  0  0  0  0  0  0
   -3.1128   -1.0073   -0.3617 C   0  0  0  0  0  0  0  0  0  0  0  0
   -2.4943   -1.1285   -1.4721 O   0  0  0  0  0  0  0  0  0  0  0  0
   -4.0560   -2.0188    0.0619 C   0  0  0  0  0  0  0  0  0  0  0  0
   -4.7561   -1.9140    1.2322 C   0  0  0  0  0  0  0  0  0  0  0  0
   -5.6430   -2.9318    1.5680 C   0  0  0  0  0  0  0  0  0  0  0  0
   -5.8077   -4.0170    0.7370 C   0  0  0  0  0  0  0  0  0  0  0  0
   -5.0997   -4.1126   -0.4363 C   0  0  0  0  0  0  0  0  0  0  0  0
   -4.2257   -3.1250   -0.7824 C   0  0  0  0  0  0  0  0  0  0  0  0
   -6.7090   -5.0442    1.0831 N   0  0  0  0  0  4  0  0  0  0  0  0
   -6.8892   -6.1283    0.2733 O   0  0  0  0  0  1  0  0  0  0  0  0
   -7.3483   -4.9619    2.1418 O   0  0  0  0  0  0  0  0  0  0  0  0
   -0.8173    1.1873    1.0194 C   0  0  0  0  0  0  0  0  0  0  0  0
   -1.0526    0.5568    2.1170 O   0  0  0  0  0  0  0  0  0  0  0  0
    0.4222    1.8230    0.9042 N   0  0  0  0  0  0  0  0  0  0  0  0
    1.4173    1.8663    1.9609 C   0  0  0  0  0  0  0  0  0  0  0  0
    1.8403    3.3375    1.9093 C   0  0  0  0  0  0  0  0  0  0  0  0
    1.7933    3.6424    0.4464 C   0  0  0  0  0  0  0  0  0  0  0  0
    0.9961    2.4943   -0.1952 C   0  0  1  0  0  0  0  0  0  0  0  0
    1.9861    1.6948   -0.9545 C   0  0  0  0  0  0  0  0  0  0  0  0
    2.6082    2.3354   -1.8672 O   0  0  0  0  0  0  0  0  0  0  0  0
    2.3014    0.3459   -0.7802 N   0  0  0  0  0  0  0  0  0  0  0  0
    3.2936   -0.3538   -1.5725 C   0  0  0  0  0  0  0  0  0  0  0  0
    4.6627    0.2515   -1.4360 C   0  0  0  0  0  0  0  0  0  0  0  0
    5.1435    0.2120   -0.0011 C   0  0  0  0  0  0  0  0  0  0  0  0
    5.2350   -1.2050    0.5181 C   0  0  0  0  0  0  0  0  0  0  0  0
    6.1595   -1.9968   -0.2676 N   0  0  0  0  0  0  0  0  0  0  0  0
    6.8576   -2.9701    0.1988 C   0  0  0  0  0  0  0  0  0  0  0  0
    6.7847   -3.3655    1.5511 N   0  0  0  0  0  0  0  0  0  0  0  0
    7.7166   -3.6282   -0.7408 N   0  0  0  0  0  0  0  0  0  0  0  0
   -3.3832    4.5996   -1.3933 H   0  0  0  0  0  0  0  0  0  0  0  0
   -4.9069    4.1038   -0.4729 H   0  0  0  0  0  0  0  0  0  0  0  0
   -4.8055    3.8865   -2.2627 H   0  0  0  0  0  0  0  0  0  0  0  0
   -3.1778    2.2779   -2.1838 H   0  0  0  0  0  0  0  0  0  0  0  0
   -4.8436    0.7565   -1.7072 H   0  0  0  0  0  0  0  0  0  0  0  0
   -4.9316    1.2036    0.0341 H   0  0  0  0  0  0  0  0  0  0  0  0
   -5.7826    2.1517   -1.1891 H   0  0  0  0  0  0  0  0  0  0  0  0
   -1.8352    3.2740   -0.3500 H   0  0  0  0  0  0  0  0  0  0  0  0
   -3.0426    2.7282    0.8669 H   0  0  0  0  0  0  0  0  0  0  0  0
   -1.4978    0.8579   -0.9894 H   0  0  0  0  0  0  0  0  0  0  0  0
   -3.3305    0.2404    1.3527 H   0  0  0  0  0  0  0  0  0  0  0  0
   -4.6514   -1.0810    1.9024 H   0  0  0  0  0  0  0  0  0  0  0  0
   -6.2020   -2.8482    2.5027 H   0  0  0  0  0  0  0  0  0  0  0  0
   -5.2145   -4.9547   -1.0999 H   0  0  0  0  0  0  0  0  0  0  0  0
   -3.6429   -3.1635   -1.7090 H   0  0  0  0  0  0  0  0  0  0  0  0
    0.9885    1.6222    2.9539 H   0  0  0  0  0  0  0  0  0  0  0  0
    2.2783    1.2313    1.7788 H   0  0  0  0  0  0  0  0  0  0  0  0
    2.8770    3.3933    2.3092 H   0  0  0  0  0  0  0  0  0  0  0  0
    1.1367    3.9638    2.4559 H   0  0  0  0  0  0  0  0  0  0  0  0
    1.3260    4.6195    0.2047 H   0  0  0  0  0  0  0  0  0  0  0  0
    2.8282    3.6958    0.0643 H   0  0  0  0  0  0  0  0  0  0  0  0
    0.3090    2.9109   -0.9532 H   0  0  0  0  0  0  0  0  0  0  0  0
    1.7984   -0.1982   -0.0454 H   0  0  0  0  0  0  0  0  0  0  0  0
    3.0226   -0.3281   -2.6471 H   0  0  0  0  0  0  0  0  0  0  0  0
    3.3445   -1.4220   -1.2960 H   0  0  0  0  0  0  0  0  0  0  0  0
    5.4011   -0.3051   -2.0477 H   0  0  0  0  0  0  0  0  0  0  0  0
    4.7104    1.2997   -1.7609 H   0  0  0  0  0  0  0  0  0  0  0  0
    6.1373    0.6666    0.1216 H   0  0  0  0  0  0  0  0  0  0  0  0
    4.4051    0.7558    0.6111 H   0  0  0  0  0  0  0  0  0  0  0  0
    5.5523   -1.1800    1.5796 H   0  0  0  0  0  0  0  0  0  0  0  0
    4.2451   -1.6771    0.4997 H   0  0  0  0  0  0  0  0  0  0  0  0
    7.6498   -3.2355    2.1440 H   0  0  0  0  0  0  0  0  0  0  0  0
    5.9171   -3.7790    1.9880 H   0  0  0  0  0  0  0  0  0  0  0  0
    7.3823   -4.3072   -1.4419 H   0  0  0  0  0  0  0  0  0  0  0  0
    8.7395   -3.3654   -0.6657 H   0  0  0  0  0  0  0  0  0  0  0  0
  1  2  1  0
  2  3  1  0
  2  4  1  0
  4  5  1  0
  5  6  1  0
  6  7  1  0
  7  8  2  0
  7  9  1  0
  9 10  2  0
 10 11  1  0
 11 12  2  0
 12 13  1  0
 13 14  2  0
  9 14  1  0
 12 15  1  0
 15 16  1  0
 15 17  2  0
  5 18  1  0
 18 19  2  0
 18 20  1  0
 20 21  1  0
 21 22  1  0
 22 23  1  0
 23 24  1  0
 20 24  1  0
 24 25  1  0
 25 26  2  0
 25 27  1  0
 27 28  1  0
 28 29  1  0
 29 30  1  0
 30 31  1  0
 31 32  1  0
 32 33  2  3
 33 34  1  0
 33 35  1  0
  1 36  1  0
  1 37  1  0
  1 38  1  0
  2 39  1  0
  3 40  1  0
  3 41  1  0
  3 42  1  0
  4 43  1  0
  4 44  1  0
  5 45  1  6
  6 46  1  0
 10 47  1  0
 11 48  1  0
 13 49  1  0
 14 50  1  0
 21 51  1  0
 21 52  1  0
 22 53  1  0
 22 54  1  0
 23 55  1  0
 23 56  1  0
 24 57  1  6
 27 58  1  0
 28 59  1  0
 28 60  1  0
 29 61  1  0
 29 62  1  0
 30 63  1  0
 30 64  1  0
 31 65  1  0
 31 66  1  0
 34 67  1  0
 34 68  1  0
 35 69  1  0
 35 70  1  0
M  CHG  2  15   1  16  -1
M  END

