46505404
     RDKit          3D

 13 12  0  0  1  0  0  0  0  0999 V2000
   -2.0288    0.8185    0.1277 O   0  0  0  0  0  0  0  0  0  0  0  0
   -0.8400    0.0995    0.3052 C   0  0  2  0  0  0  0  0  0  0  0  0
    0.2733    0.9048   -0.2315 C   0  0  0  0  0  0  0  0  0  0  0  0
    1.5166    0.5234   -0.0827 C   0  0  0  0  0  0  0  0  0  0  0  0
    1.8057   -0.6429    0.5814 O   0  0  0  0  0  0  0  0  0  0  0  0
    2.5954    1.2605   -0.5775 O   0  0  0  0  0  1  0  0  0  0  0  0
   -0.9970   -1.2046   -0.3845 C   0  0  0  0  0  0  0  0  0  0  0  0
   -0.1617   -2.2902   -0.1512 O   0  0  0  0  0  1  0  0  0  0  0  0
   -1.9240   -1.3977   -1.2421 O   0  0  0  0  0  0  0  0  0  0  0  0
   -2.1461    1.5343    0.7946 H   0  0  0  0  0  0  0  0  0  0  0  0
   -0.6717   -0.0998    1.3849 H   0  0  0  0  0  0  0  0  0  0  0  0
    0.0985    1.8344   -0.7641 H   0  0  0  0  0  0  0  0  0  0  0  0
    2.4798   -1.3402    0.2398 H   0  0  0  0  0  0  0  0  0  0  0  0
  2  1  1  0
  2  3  1  0
  3  4  2  0
  4  5  1  0
  4  6  1  0
  2  7  1  0
  7  8  1  0
  7  9  2  0
  1 10  1  0
  2 11  1  1
  3 12  1  0
  5 13  1  0
M  CHG  2   6  -1   8  -1
M  END

