46509184
     RDKit          3D

 44 43  0  0  1  0  0  0  0  0999 V2000
    0.7398    0.5587    2.4625 N   0  0  0  0  0  0  0  0  0  0  0  0
    0.0611    1.1870    1.3882 C   0  0  2  0  0  0  0  0  0  0  0  0
   -0.9424    0.1938    0.8488 C   0  0  0  0  0  0  0  0  0  0  0  0
    0.9332    1.7063    0.3140 C   0  0  0  0  0  0  0  0  0  0  0  0
    1.7453    0.6832   -0.3840 C   0  0  0  0  0  0  0  0  0  0  0  0
    2.6918   -0.0420    0.5142 C   0  0  0  0  0  0  0  0  0  0  0  0
    3.4892   -0.9994   -0.2983 N   0  0  0  0  0  0  0  0  0  0  0  0
    4.4342   -1.7611    0.4221 C   0  0  0  0  0  0  0  0  0  0  0  0
    4.1136   -2.2851    1.5444 N   0  0  0  0  0  0  0  0  0  0  0  0
    5.7255   -1.9424   -0.0950 N   0  0  0  0  0  0  0  0  0  0  0  0
    6.2623   -1.0098   -0.9690 N   0  0  0  0  0  4  0  0  0  0  0  0
    5.8988    0.3093   -0.9603 O   0  0  0  0  0  1  0  0  0  0  0  0
    7.1148   -1.3886   -1.8009 O   0  0  0  0  0  0  0  0  0  0  0  0
   -1.0784   -0.9486    1.3262 O   0  0  0  0  0  0  0  0  0  0  0  0
   -1.7412    0.6023   -0.2355 N   0  0  0  0  0  0  0  0  0  0  0  0
   -2.7234   -0.3480   -0.7757 C   0  0  2  0  0  0  0  0  0  0  0  0
   -2.3871   -0.5587   -2.2059 C   0  0  0  0  0  0  0  0  0  0  0  0
   -3.1443   -1.4288   -3.0363 N   0  0  0  0  0  0  0  0  0  0  0  0
   -1.4076    0.0257   -2.7618 O   0  0  0  0  0  0  0  0  0  0  0  0
   -4.0742    0.3247   -0.6565 C   0  0  0  0  0  0  0  0  0  0  0  0
   -4.4101    0.6552    0.7783 C   0  0  0  0  0  0  0  0  0  0  0  0
   -5.6944    1.2847    0.8056 N   0  0  0  0  0  0  0  0  0  0  0  0
    1.0883    1.2010    3.2087 H   0  0  0  0  0  0  0  0  0  0  0  0
    0.1903   -0.2336    2.8798 H   0  0  0  0  0  0  0  0  0  0  0  0
   -0.5438    2.0399    1.8310 H   0  0  0  0  0  0  0  0  0  0  0  0
    1.5909    2.5077    0.7648 H   0  0  0  0  0  0  0  0  0  0  0  0
    0.3348    2.2709   -0.4763 H   0  0  0  0  0  0  0  0  0  0  0  0
    2.3111    1.1509   -1.2453 H   0  0  0  0  0  0  0  0  0  0  0  0
    1.0499   -0.0527   -0.9072 H   0  0  0  0  0  0  0  0  0  0  0  0
    2.1608   -0.6284    1.2902 H   0  0  0  0  0  0  0  0  0  0  0  0
    3.4274    0.6083    1.0075 H   0  0  0  0  0  0  0  0  0  0  0  0
    3.3180   -1.0552   -1.3040 H   0  0  0  0  0  0  0  0  0  0  0  0
    3.2067   -2.2211    2.0182 H   0  0  0  0  0  0  0  0  0  0  0  0
    6.2776   -2.7731    0.1763 H   0  0  0  0  0  0  0  0  0  0  0  0
   -1.6306    1.5495   -0.6335 H   0  0  0  0  0  0  0  0  0  0  0  0
   -2.6887   -1.2929   -0.2210 H   0  0  0  0  0  0  0  0  0  0  0  0
   -4.0969   -1.1568   -3.3727 H   0  0  0  0  0  0  0  0  0  0  0  0
   -2.7637   -2.3517   -3.3240 H   0  0  0  0  0  0  0  0  0  0  0  0
   -4.8533   -0.3201   -1.0695 H   0  0  0  0  0  0  0  0  0  0  0  0
   -4.0176    1.3035   -1.1964 H   0  0  0  0  0  0  0  0  0  0  0  0
   -3.6738    1.3593    1.2208 H   0  0  0  0  0  0  0  0  0  0  0  0
   -4.3973   -0.2504    1.4270 H   0  0  0  0  0  0  0  0  0  0  0  0
   -5.9299    1.8448   -0.0186 H   0  0  0  0  0  0  0  0  0  0  0  0
   -5.9664    1.6816    1.7192 H   0  0  0  0  0  0  0  0  0  0  0  0
  6  7  1  0
  3 15  1  0
 15 16  1  0
  7  8  1  0
 16 17  1  0
  2  4  1  0
 17 18  1  0
  8  9  2  3
 17 19  2  0
  1  2  1  0
 16 20  1  0
  8 10  1  0
 20 21  1  0
  4  5  1  0
 21 22  1  0
 10 11  1  0
  5  6  1  0
 11 12  1  0
 11 13  2  0
  2  3  1  0
  3 14  2  0
  1 23  1  0
  1 24  1  0
  2 25  1  1
  4 26  1  0
  4 27  1  0
  5 28  1  0
  5 29  1  0
  6 30  1  0
  6 31  1  0
  7 32  1  0
  9 33  1  0
 10 34  1  0
 15 35  1  0
 16 36  1  1
 18 37  1  0
 18 38  1  0
 20 39  1  0
 20 40  1  0
 21 41  1  0
 21 42  1  0
 22 43  1  0
 22 44  1  0
M  CHG  2  11   1  12  -1
M  END

