46507499
     RDKit          3D

 23 23  0  0  1  0  0  0  0  0999 V2000
   -0.8686   -2.7942    0.6087 O   0  0  0  0  0  0  0  0  0  0  0  0
   -0.4908   -1.6043    0.0043 C   0  0  2  0  0  0  0  0  0  0  0  0
    0.7923   -1.2933    0.4304 O   0  0  0  0  0  0  0  0  0  0  0  0
    1.2246   -0.1832   -0.2742 C   0  0  1  0  0  0  0  0  0  0  0  0
    0.4213    1.0576    0.0852 C   0  0  2  0  0  0  0  0  0  0  0  0
    0.5464    1.3924    1.4154 O   0  0  0  0  0  0  0  0  0  0  0  0
   -1.0192    0.7684   -0.2785 C   0  0  2  0  0  0  0  0  0  0  0  0
   -1.8696    1.8130    0.0017 O   0  0  0  0  0  0  0  0  0  0  0  0
   -1.4124   -0.5040    0.4765 C   0  0  1  0  0  0  0  0  0  0  0  0
   -2.7373   -0.8167    0.2409 O   0  0  0  0  0  0  0  0  0  0  0  0
    2.6719    0.0389   -0.0553 C   0  0  0  0  0  0  0  0  0  0  0  0
    3.3518    1.0793   -0.6431 O   0  0  0  0  0  0  0  0  0  0  0  0
    3.3148   -0.7575    0.7025 O   0  0  0  0  0  0  0  0  0  0  0  0
   -0.9420   -3.5403   -0.0396 H   0  0  0  0  0  0  0  0  0  0  0  0
   -0.5417   -1.7138   -1.1005 H   0  0  0  0  0  0  0  0  0  0  0  0
    1.0437   -0.3621   -1.3644 H   0  0  0  0  0  0  0  0  0  0  0  0
    0.8069    1.8801   -0.5650 H   0  0  0  0  0  0  0  0  0  0  0  0
    0.7399    2.3607    1.5635 H   0  0  0  0  0  0  0  0  0  0  0  0
   -1.0355    0.5328   -1.3756 H   0  0  0  0  0  0  0  0  0  0  0  0
   -2.6002    1.8671   -0.6759 H   0  0  0  0  0  0  0  0  0  0  0  0
   -1.2383   -0.3474    1.5640 H   0  0  0  0  0  0  0  0  0  0  0  0
   -3.3086   -0.2735    0.8439 H   0  0  0  0  0  0  0  0  0  0  0  0
    3.1506    1.3998   -1.5650 H   0  0  0  0  0  0  0  0  0  0  0  0
  2  1  1  0
  2  3  1  0
  3  4  1  0
  4  5  1  0
  5  6  1  0
  5  7  1  0
  7  8  1  0
  7  9  1  0
  2  9  1  0
  9 10  1  0
  4 11  1  0
 11 12  1  0
 11 13  2  0
  1 14  1  0
  2 15  1  6
  4 16  1  6
  5 17  1  6
  6 18  1  0
  7 19  1  6
  8 20  1  0
  9 21  1  1
 10 22  1  0
 12 23  1  0
M  END

