46507561
     RDKit          3D

 42 43  0  0  0  0  0  0  0  0999 V2000
   -1.9618   -1.3431    1.3533 O   0  0  0  0  0  0  0  0  0  0  0  0
   -1.9260    2.0283   -0.6707 O   0  0  0  0  0  0  0  0  0  0  0  0
   -3.0538   -2.8256    0.0586 O   0  0  0  0  0  0  0  0  0  0  0  0
   -3.0093    3.6454   -1.8010 O   0  0  0  0  0  0  0  0  0  0  0  0
    1.6899   -1.1779   -0.8472 N   0  0  0  0  0  0  0  0  0  0  0  0
    3.5970   -1.3581   -1.9356 N   0  0  0  0  0  0  0  0  0  0  0  0
    2.5938    0.1423    0.9919 N   0  0  0  0  0  0  0  0  0  0  0  0
    4.9123    0.6220    0.8395 N   0  0  0  0  0  0  0  0  0  0  0  0
    3.5902    1.4158    2.7145 N   0  0  0  0  0  0  0  0  0  0  0  0
   -2.0244   -0.3060   -0.8737 C   0  0  0  0  0  0  0  0  0  0  0  0
   -0.5477   -0.2316   -1.1053 C   0  0  0  0  0  0  0  0  0  0  0  0
    0.2701   -1.3374   -0.5288 C   0  0  0  0  0  0  0  0  0  0  0  0
   -2.4197   -0.3038    0.5612 C   0  0  0  0  0  0  0  0  0  0  0  0
   -2.5879    1.0164   -1.4423 C   0  0  0  0  0  0  0  0  0  0  0  0
    2.6419   -0.5352   -0.1631 C   0  0  0  0  0  0  0  0  0  0  0  0
    2.2894   -1.6782   -1.9326 C   0  0  0  0  0  0  0  0  0  0  0  0
    3.8693   -0.6313   -0.8302 C   0  0  0  0  0  0  0  0  0  0  0  0
    5.0022   -0.0452   -0.3155 C   0  0  0  0  0  0  0  0  0  0  0  0
   -2.3160   -2.6470    1.0560 C   0  0  0  0  0  0  0  0  0  0  0  0
   -2.1759    3.3665   -0.8923 C   0  0  0  0  0  0  0  0  0  0  0  0
    3.7125    0.7063    1.4755 C   0  0  0  0  0  0  0  0  0  0  0  0
   -1.8615   -3.8122    1.8605 C   0  0  0  0  0  0  0  0  0  0  0  0
   -1.4806    4.3708   -0.0842 C   0  0  0  0  0  0  0  0  0  0  0  0
    3.6696    0.8847    3.6166 H   0  0  0  0  0  0  0  0  0  0  0  0
    3.4259    2.4384    2.6756 H   0  0  0  0  0  0  0  0  0  0  0  0
   -2.4532   -1.1608   -1.4463 H   0  0  0  0  0  0  0  0  0  0  0  0
   -0.1392    0.7853   -0.8153 H   0  0  0  0  0  0  0  0  0  0  0  0
   -0.3438   -0.2537   -2.2206 H   0  0  0  0  0  0  0  0  0  0  0  0
    0.1656   -1.2732    0.5990 H   0  0  0  0  0  0  0  0  0  0  0  0
   -0.0974   -2.3023   -0.8709 H   0  0  0  0  0  0  0  0  0  0  0  0
   -2.0138    0.6507    1.0067 H   0  0  0  0  0  0  0  0  0  0  0  0
   -3.5383   -0.1553    0.6459 H   0  0  0  0  0  0  0  0  0  0  0  0
   -2.2783    1.0601   -2.5007 H   0  0  0  0  0  0  0  0  0  0  0  0
   -3.6691    1.0104   -1.2841 H   0  0  0  0  0  0  0  0  0  0  0  0
    1.7934   -2.2674   -2.7151 H   0  0  0  0  0  0  0  0  0  0  0  0
    5.9307   -0.1285   -0.8379 H   0  0  0  0  0  0  0  0  0  0  0  0
   -1.9881   -4.7186    1.2668 H   0  0  0  0  0  0  0  0  0  0  0  0
   -0.7834   -3.6517    2.0996 H   0  0  0  0  0  0  0  0  0  0  0  0
   -2.4880   -3.8731    2.7799 H   0  0  0  0  0  0  0  0  0  0  0  0
   -1.3029    5.3238   -0.6223 H   0  0  0  0  0  0  0  0  0  0  0  0
   -0.5557    3.9376    0.3331 H   0  0  0  0  0  0  0  0  0  0  0  0
   -2.1380    4.6127    0.8015 H   0  0  0  0  0  0  0  0  0  0  0  0
  1 13  1  0
  1 19  1  0
  2 14  1  0
  2 20  1  0
  3 19  2  0
  4 20  2  0
  5 12  1  0
  5 15  1  0
  5 16  1  0
  6 16  2  0
  6 17  1  0
  7 15  2  0
  7 21  1  0
  8 18  1  0
  8 21  2  0
  9 21  1  0
 10 11  1  0
 10 13  1  0
 10 14  1  0
 11 12  1  0
 15 17  1  0
 17 18  2  0
 19 22  1  0
 20 23  1  0
  9 24  1  0
  9 25  1  0
 10 26  1  0
 11 27  1  0
 11 28  1  0
 12 29  1  0
 12 30  1  0
 13 31  1  0
 13 32  1  0
 14 33  1  0
 14 34  1  0
 16 35  1  0
 18 36  1  0
 22 37  1  0
 22 38  1  0
 22 39  1  0
 23 40  1  0
 23 41  1  0
 23 42  1  0
M  END

