46505224
     RDKit          3D

 70 74  0  0  0  0  0  0  0  0999 V2000
   -8.5880    2.8662    1.1461 C   0  0  0  0  0  0  0  0  0  0  0  0
   -7.5768    4.0150    1.2635 C   0  0  0  0  0  0  0  0  0  0  0  0
   -6.6796    3.8210    0.1260 O   0  0  0  0  0  0  0  0  0  0  0  0
   -5.9908    2.6970    0.1383 C   0  0  0  0  0  0  0  0  0  0  0  0
   -6.1167    1.8756    1.1832 O   0  0  0  0  0  0  0  0  0  0  0  0
   -5.0364    2.1937   -0.9381 C   0  0  0  0  0  0  0  0  0  0  0  0
   -4.3379    1.1512   -0.2177 O   0  0  0  0  0  0  0  0  0  0  0  0
   -4.3263   -0.0220   -0.3959 N   0  0  0  0  0  0  0  0  0  0  0  0
   -4.0502   -1.1251   -0.6752 C   0  0  0  0  0  0  0  0  0  0  0  0
   -4.9453   -2.2671   -0.4535 C   0  0  0  0  0  0  0  0  0  0  0  0
   -5.8898   -2.2343    0.5776 C   0  0  0  0  0  0  0  0  0  0  0  0
   -6.7495   -3.2504    0.7910 C   0  0  0  0  0  0  0  0  0  0  0  0
   -6.6956   -4.3401   -0.0222 C   0  0  0  0  0  0  0  0  0  0  0  0
   -5.7549   -4.3987   -1.0745 C   0  0  0  0  0  0  0  0  0  0  0  0
   -4.9241   -3.3386   -1.2240 N   0  0  0  0  0  0  0  0  0  0  0  0
   -2.6613   -1.3217   -1.1920 C   0  0  0  0  0  0  0  0  0  0  0  0
   -2.1922   -2.8173   -0.8789 C   0  0  0  0  0  0  0  0  0  0  0  0
   -2.4610   -2.2564   -2.3040 C   0  0  0  0  0  0  0  0  0  0  0  0
   -1.5197   -0.4950   -0.6163 C   0  0  0  0  0  0  0  0  0  0  0  0
   -1.5618    0.2076    0.4979 C   0  0  0  0  0  0  0  0  0  0  0  0
   -0.4029    0.7862    1.0602 C   0  0  0  0  0  0  0  0  0  0  0  0
    0.8098    0.6006    0.4326 C   0  0  0  0  0  0  0  0  0  0  0  0
    2.0922    0.9623    0.7210 N   0  0  0  0  0  0  0  0  0  0  0  0
    2.4232    1.7827    1.8615 C   0  0  0  0  0  0  0  0  0  0  0  0
    2.9323    0.4894   -0.2077 C   0  0  0  0  0  0  0  0  0  0  0  0
    4.3714    0.5763   -0.2993 C   0  0  0  0  0  0  0  0  0  0  0  0
    5.0710   -0.5829    0.2060 N   0  0  0  0  0  0  0  0  0  0  0  0
    6.5000   -0.4946    0.1777 C   0  0  0  0  0  0  0  0  0  0  0  0
    7.1642    0.1338   -0.8566 C   0  0  0  0  0  0  0  0  0  0  0  0
    8.4927    0.4400   -0.9263 C   0  0  0  0  0  0  0  0  0  0  0  0
    9.2879    0.0563    0.2044 C   0  0  0  0  0  0  0  0  0  0  0  0
    8.6724   -0.5525    1.2285 C   0  0  0  0  0  0  0  0  0  0  0  0
    7.2807   -0.8623    1.2801 C   0  0  0  0  0  0  0  0  0  0  0  0
   10.7072    0.4842    0.2696 C   0  0  0  0  0  0  0  0  0  0  0  0
   11.1236    1.5021   -0.6661 N   0  0  0  0  0  0  0  0  0  0  0  0
   11.4861    0.1142    1.1732 N   0  0  0  0  0  0  0  0  0  0  0  0
    2.1630   -0.2007   -1.1130 N   0  0  0  0  0  0  0  0  0  0  0  0
    0.8569   -0.1382   -0.7294 C   0  0  0  0  0  0  0  0  0  0  0  0
   -0.2875   -0.6558   -1.2267 C   0  0  0  0  0  0  0  0  0  0  0  0
   -8.3941    2.2972    0.2010 H   0  0  0  0  0  0  0  0  0  0  0  0
   -9.6303    3.2135    1.0830 H   0  0  0  0  0  0  0  0  0  0  0  0
   -8.5173    2.1585    1.9974 H   0  0  0  0  0  0  0  0  0  0  0  0
   -8.0073    4.9769    1.3530 H   0  0  0  0  0  0  0  0  0  0  0  0
   -6.9668    3.7860    2.1749 H   0  0  0  0  0  0  0  0  0  0  0  0
   -5.5550    1.7686   -1.7701 H   0  0  0  0  0  0  0  0  0  0  0  0
   -4.3280    3.0075   -1.2370 H   0  0  0  0  0  0  0  0  0  0  0  0
   -5.8430   -1.3044    1.1805 H   0  0  0  0  0  0  0  0  0  0  0  0
   -7.4665   -3.1749    1.6392 H   0  0  0  0  0  0  0  0  0  0  0  0
   -7.4112   -5.1818    0.1533 H   0  0  0  0  0  0  0  0  0  0  0  0
   -5.6648   -5.2333   -1.7200 H   0  0  0  0  0  0  0  0  0  0  0  0
   -2.8816   -3.4747   -0.4152 H   0  0  0  0  0  0  0  0  0  0  0  0
   -1.1232   -2.9446   -0.6556 H   0  0  0  0  0  0  0  0  0  0  0  0
   -1.5791   -2.2535   -2.9417 H   0  0  0  0  0  0  0  0  0  0  0  0
   -3.3417   -2.6956   -2.7896 H   0  0  0  0  0  0  0  0  0  0  0  0
   -2.4514    0.4063    1.0453 H   0  0  0  0  0  0  0  0  0  0  0  0
   -0.4454    1.4048    1.9536 H   0  0  0  0  0  0  0  0  0  0  0  0
    3.3568    2.3435    1.7720 H   0  0  0  0  0  0  0  0  0  0  0  0
    2.5784    1.1508    2.8075 H   0  0  0  0  0  0  0  0  0  0  0  0
    1.5899    2.4799    2.1305 H   0  0  0  0  0  0  0  0  0  0  0  0
    4.6911    0.7082   -1.3759 H   0  0  0  0  0  0  0  0  0  0  0  0
    4.8122    1.4580    0.2528 H   0  0  0  0  0  0  0  0  0  0  0  0
    4.5742   -1.4540    0.5289 H   0  0  0  0  0  0  0  0  0  0  0  0
    6.5660    0.4141   -1.7141 H   0  0  0  0  0  0  0  0  0  0  0  0
    9.0312    0.9259   -1.6826 H   0  0  0  0  0  0  0  0  0  0  0  0
    9.2191   -0.8785    2.1261 H   0  0  0  0  0  0  0  0  0  0  0  0
    6.8369   -1.3417    2.1133 H   0  0  0  0  0  0  0  0  0  0  0  0
   11.2215    1.3343   -1.6873 H   0  0  0  0  0  0  0  0  0  0  0  0
   11.3897    2.5142   -0.3985 H   0  0  0  0  0  0  0  0  0  0  0  0
   11.2370   -0.5357    2.0028 H   0  0  0  0  0  0  0  0  0  0  0  0
   -0.1838   -1.2768   -2.1235 H   0  0  0  0  0  0  0  0  0  0  0  0
  1  2  1  0
  2  3  1  0
  3  4  1  0
  4  5  2  0
  4  6  1  0
  6  7  1  0
  7  8  1  0
  8  9  2  0
  9 10  1  0
 10 11  2  0
 11 12  1  0
 12 13  2  0
 13 14  1  0
 14 15  2  0
 10 15  1  0
  9 16  1  0
 16 17  1  0
 17 18  1  0
 16 18  1  0
 16 19  1  0
 19 20  2  0
 20 21  1  0
 21 22  2  0
 22 23  1  0
 23 24  1  0
 23 25  1  0
 25 26  1  0
 26 27  1  0
 27 28  1  0
 28 29  2  0
 29 30  1  0
 30 31  2  0
 31 32  1  0
 32 33  2  0
 28 33  1  0
 31 34  1  0
 34 35  1  0
 34 36  2  3
 25 37  2  0
 37 38  1  0
 22 38  1  0
 38 39  2  0
 19 39  1  0
  1 40  1  0
  1 41  1  0
  1 42  1  0
  2 43  1  0
  2 44  1  0
  6 45  1  0
  6 46  1  0
 11 47  1  0
 12 48  1  0
 13 49  1  0
 14 50  1  0
 17 51  1  0
 17 52  1  0
 18 53  1  0
 18 54  1  0
 20 55  1  0
 21 56  1  0
 24 57  1  0
 24 58  1  0
 24 59  1  0
 26 60  1  0
 26 61  1  0
 27 62  1  0
 29 63  1  0
 30 64  1  0
 32 65  1  0
 33 66  1  0
 35 67  1  0
 35 68  1  0
 36 69  1  0
 39 70  1  0
M  END

