46509036
     RDKit          3D

  9  8  0  0  0  0  0  0  0  0999 V2000
   -0.9898   -0.5567    0.0025 C   0  0  0  0  0  0  0  0  0  0  0  0
    0.0584    0.3661    0.4853 C   0  0  0  0  0  0  0  0  0  0  0  0
   -0.1069    1.0030    1.5452 O   0  0  0  0  0  0  0  0  0  0  0  0
    1.2679    0.5183   -0.2828 C   0  0  0  0  0  0  0  0  0  0  0  0
    1.4618   -0.1082   -1.3509 O   0  0  0  0  0  0  0  0  0  0  0  0
   -1.8973   -0.5241    0.6356 H   0  0  0  0  0  0  0  0  0  0  0  0
   -1.2731   -0.2931   -1.0534 H   0  0  0  0  0  0  0  0  0  0  0  0
   -0.5572   -1.5928   -0.0422 H   0  0  0  0  0  0  0  0  0  0  0  0
    2.0362    1.1876    0.0607 H   0  0  0  0  0  0  0  0  0  0  0  0
  1  2  1  0
  2  3  2  0
  2  4  1  0
  4  5  2  0
  1  6  1  0
  1  7  1  0
  1  8  1  0
  4  9  1  0
M  END

