46508360
     RDKit          3D

104107  0  0  1  0  0  0  0  0999 V2000
    7.5558    0.6604    2.9906 C   0  0  0  0  0  0  0  0  0  0  0  0
    0.2724    2.4237   -0.9552 C   0  0  0  0  0  0  0  0  0  0  0  0
   -2.8908   -1.0814   -3.0936 C   0  0  0  0  0  0  0  0  0  0  0  0
    1.0509    6.0109    2.1625 C   0  0  0  0  0  0  0  0  0  0  0  0
    4.6202    0.7565   -4.1331 C   0  0  0  0  0  0  0  0  0  0  0  0
    4.9571    3.1554    2.4152 C   0  0  0  0  0  0  0  0  0  0  0  0
    6.6766    2.2300    0.8638 C   0  0  0  0  0  0  0  0  0  0  0  0
   -4.2182    0.9177   -0.6973 C   0  0  0  0  0  0  0  0  0  0  0  0
   -7.7973   -2.0045    1.6049 C   0  0  0  0  0  0  0  0  0  0  0  0
    6.5786    1.5400    3.1727 C   0  0  0  0  0  0  0  0  0  0  0  0
   -5.6004   -4.0591   -1.3739 C   0  0  0  0  0  0  0  0  0  0  0  0
   -4.6948   -3.4619   -2.4855 C   0  0  0  0  0  0  0  0  0  0  0  0
   -2.7831    1.8111    1.2279 C   0  0  0  0  0  0  0  0  0  0  0  0
   -4.0272   -1.3826    0.1437 C   0  0  0  0  0  0  0  0  0  0  0  0
    0.3328    2.2802    1.5564 C   0  0  0  0  0  0  0  0  0  0  0  0
   -6.0466   -3.2242    0.9412 C   0  0  0  0  0  0  0  0  0  0  0  0
    4.0129    1.0866    0.6974 C   0  0  0  0  0  0  0  0  0  0  0  0
   -0.4750    2.1874    0.2591 C   0  0  2  0  0  0  0  0  0  0  0  0
   -2.4371   -2.2227   -2.2903 C   0  0  2  0  0  0  0  0  0  0  0  0
    0.2954    4.7247    1.9494 C   0  0  0  0  0  0  0  0  0  0  0  0
    4.5414   -0.4778   -3.2976 C   0  0  0  0  0  0  0  0  0  0  0  0
   -4.9984   -3.5931   -0.0499 C   0  0  2  0  0  0  0  0  0  0  0  0
   -3.5021   -3.1228   -1.7258 C   0  0  1  0  0  0  0  0  0  0  0  0
   -1.6157    1.2778    0.3654 C   0  0  0  0  0  0  0  0  0  0  0  0
   -4.1174   -2.5200   -0.4990 C   0  0  0  0  0  0  0  0  0  0  0  0
    3.1300   -0.1524    0.4564 C   0  0  2  0  0  0  0  0  0  0  0  0
   -3.5302    0.5521    1.5805 C   0  0  1  0  0  0  0  0  0  0  0  0
   -1.9807    0.1239   -0.1791 C   0  0  0  0  0  0  0  0  0  0  0  0
   -1.4882   -1.9861   -1.1641 C   0  0  2  0  0  0  0  0  0  0  0  0
    4.1412   -1.2444    0.0792 C   0  0  2  0  0  0  0  0  0  0  0  0
    2.2180   -2.0548   -1.1186 C   0  0  2  0  0  0  0  0  0  0  0  0
   -0.9424   -0.5401   -1.0250 C   0  0  2  0  0  0  0  0  0  0  0  0
    3.7151   -1.6697   -1.3125 C   0  0  1  0  0  0  0  0  0  0  0  0
    1.4152   -0.7693   -1.0323 C   0  0  2  0  0  0  0  0  0  0  0  0
    5.7335    1.9015    1.9981 C   0  0  0  0  0  0  0  0  0  0  0  0
   -3.4068   -0.0876    0.1821 C   0  0  2  0  0  0  0  0  0  0  0  0
   -0.9371    4.8114    1.9470 O   0  0  0  0  0  0  0  0  0  0  0  0
    5.1358   -1.5437   -3.6161 O   0  0  0  0  0  0  0  0  0  0  0  0
   -2.8419   -0.2819    2.4487 O   0  0  0  0  0  0  0  0  0  0  0  0
   -0.4204   -2.8593   -1.3273 O   0  0  0  0  0  0  0  0  0  0  0  0
    4.1165   -2.2892    0.9948 O   0  0  0  0  0  0  0  0  0  0  0  0
    2.2311   -2.7864    0.0603 O   0  0  0  0  0  0  0  0  0  0  0  0
   -6.8898   -2.2063    0.5530 O   0  0  0  0  0  0  0  0  0  0  0  0
    0.9355    3.5232    1.7680 O   0  0  0  0  0  0  0  0  0  0  0  0
    4.9100    0.8407    1.7249 O   0  0  0  0  0  0  0  0  0  0  0  0
    3.8061   -0.5116   -2.1236 O   0  0  0  0  0  0  0  0  0  0  0  0
    2.2863    0.1906   -0.5602 O   0  0  0  0  0  0  0  0  0  0  0  0
    0.2655   -0.8054   -0.3210 O   0  0  0  0  0  0  0  0  0  0  0  0
    8.2152    0.3489    3.8089 H   0  0  0  0  0  0  0  0  0  0  0  0
    7.7536    0.2077    2.0367 H   0  0  0  0  0  0  0  0  0  0  0  0
    1.3601    2.7220   -0.7694 H   0  0  0  0  0  0  0  0  0  0  0  0
    0.1783    1.6963   -1.7430 H   0  0  0  0  0  0  0  0  0  0  0  0
   -0.0703    3.3895   -1.4684 H   0  0  0  0  0  0  0  0  0  0  0  0
   -4.0230   -1.1287   -3.1560 H   0  0  0  0  0  0  0  0  0  0  0  0
   -2.6067   -0.0716   -2.8038 H   0  0  0  0  0  0  0  0  0  0  0  0
   -2.6075   -1.2200   -4.1885 H   0  0  0  0  0  0  0  0  0  0  0  0
    2.1378    5.8548    2.0839 H   0  0  0  0  0  0  0  0  0  0  0  0
    0.7577    6.6595    1.2970 H   0  0  0  0  0  0  0  0  0  0  0  0
    0.7355    6.5223    3.0749 H   0  0  0  0  0  0  0  0  0  0  0  0
    5.5166    1.3583   -3.8936 H   0  0  0  0  0  0  0  0  0  0  0  0
    4.5274    0.5068   -5.1990 H   0  0  0  0  0  0  0  0  0  0  0  0
    3.7315    1.3680   -3.8705 H   0  0  0  0  0  0  0  0  0  0  0  0
    5.7290    3.8763    2.8015 H   0  0  0  0  0  0  0  0  0  0  0  0
    4.3387    2.8706    3.2835 H   0  0  0  0  0  0  0  0  0  0  0  0
    4.3829    3.5654    1.5690 H   0  0  0  0  0  0  0  0  0  0  0  0
    7.6203    2.6348    1.2900 H   0  0  0  0  0  0  0  0  0  0  0  0
    6.2877    2.9625    0.1566 H   0  0  0  0  0  0  0  0  0  0  0  0
    6.9693    1.2591    0.3681 H   0  0  0  0  0  0  0  0  0  0  0  0
   -3.5327    1.5715   -1.2103 H   0  0  0  0  0  0  0  0  0  0  0  0
   -4.8055    0.3234   -1.4448 H   0  0  0  0  0  0  0  0  0  0  0  0
   -4.9795    1.4418   -0.0988 H   0  0  0  0  0  0  0  0  0  0  0  0
   -8.5190   -1.1929    1.3709 H   0  0  0  0  0  0  0  0  0  0  0  0
   -8.4156   -2.9336    1.7015 H   0  0  0  0  0  0  0  0  0  0  0  0
   -7.2920   -1.8469    2.5696 H   0  0  0  0  0  0  0  0  0  0  0  0
    6.4430    1.9489    4.1546 H   0  0  0  0  0  0  0  0  0  0  0  0
   -6.6369   -3.7451   -1.5045 H   0  0  0  0  0  0  0  0  0  0  0  0
   -5.4900   -5.1606   -1.4107 H   0  0  0  0  0  0  0  0  0  0  0  0
   -4.5508   -4.2761   -3.2521 H   0  0  0  0  0  0  0  0  0  0  0  0
   -5.2842   -2.6346   -2.8918 H   0  0  0  0  0  0  0  0  0  0  0  0
   -3.4046    2.4350    0.5828 H   0  0  0  0  0  0  0  0  0  0  0  0
   -2.4189    2.3594    2.0910 H   0  0  0  0  0  0  0  0  0  0  0  0
   -4.7258   -1.4900    1.0107 H   0  0  0  0  0  0  0  0  0  0  0  0
   -0.4349    2.1509    2.3727 H   0  0  0  0  0  0  0  0  0  0  0  0
    1.0943    1.4918    1.6084 H   0  0  0  0  0  0  0  0  0  0  0  0
   -5.5817   -3.0908    1.9299 H   0  0  0  0  0  0  0  0  0  0  0  0
   -6.7032   -4.1376    1.0560 H   0  0  0  0  0  0  0  0  0  0  0  0
    3.3347    1.8951    1.0113 H   0  0  0  0  0  0  0  0  0  0  0  0
    4.4945    1.4075   -0.2332 H   0  0  0  0  0  0  0  0  0  0  0  0
   -1.0308    3.2351    0.3701 H   0  0  0  0  0  0  0  0  0  0  0  0
   -1.9311   -2.9300   -3.0428 H   0  0  0  0  0  0  0  0  0  0  0  0
   -4.3891   -4.4071    0.4061 H   0  0  0  0  0  0  0  0  0  0  0  0
   -3.0432   -4.0888   -1.3490 H   0  0  0  0  0  0  0  0  0  0  0  0
    2.6356   -0.4502    1.3897 H   0  0  0  0  0  0  0  0  0  0  0  0
   -4.5703    0.7203    1.8543 H   0  0  0  0  0  0  0  0  0  0  0  0
   -1.8849   -2.3039   -0.1520 H   0  0  0  0  0  0  0  0  0  0  0  0
    5.1659   -0.8915    0.0159 H   0  0  0  0  0  0  0  0  0  0  0  0
    2.0327   -2.6481   -2.0344 H   0  0  0  0  0  0  0  0  0  0  0  0
   -0.8385   -0.2708   -2.0412 H   0  0  0  0  0  0  0  0  0  0  0  0
    4.2729   -2.5242   -1.6958 H   0  0  0  0  0  0  0  0  0  0  0  0
    1.2072   -0.4819   -2.1175 H   0  0  0  0  0  0  0  0  0  0  0  0
   -3.3958   -0.6629    3.1599 H   0  0  0  0  0  0  0  0  0  0  0  0
   -0.7258   -3.7785   -1.1572 H   0  0  0  0  0  0  0  0  0  0  0  0
    4.2103   -1.9093    1.8877 H   0  0  0  0  0  0  0  0  0  0  0  0
    1.4672   -2.5753    0.6531 H   0  0  0  0  0  0  0  0  0  0  0  0
  1 10  2  3
 11 12  1  0
 18  2  1  0
 15 18  1  0
 19  3  1  0
  4 20  1  0
  5 21  1  0
 11 22  1  0
 22 16  1  0
 12 23  1  0
 19 23  1  0
 13 24  1  0
 18 24  1  0
 14 25  2  0
 22 25  1  0
 23 25  1  0
 26 17  1  0
 13 27  1  0
 24 28  2  0
 19 29  1  0
 26 30  1  0
 28 32  1  0
 29 32  1  0
 30 33  1  0
 31 33  1  0
 31 34  1  0
  6 35  1  0
  7 35  1  0
 10 35  1  0
 36  8  1  6
 14 36  1  0
 27 36  1  0
 28 36  1  0
 20 37  2  0
 21 38  2  0
 27 39  1  0
 29 40  1  0
 30 41  1  0
 31 42  1  0
  9 43  1  0
 16 43  1  0
 15 44  1  0
 20 44  1  0
 17 45  1  0
 35 45  1  0
 21 46  1  0
 33 46  1  0
 26 47  1  0
 34 47  1  0
 32 48  1  0
 34 48  1  0
  1 49  1  0
  1 50  1  0
  2 51  1  0
  2 52  1  0
  2 53  1  0
  3 54  1  0
  3 55  1  0
  3 56  1  0
  4 57  1  0
  4 58  1  0
  4 59  1  0
  5 60  1  0
  5 61  1  0
  5 62  1  0
  6 63  1  0
  6 64  1  0
  6 65  1  0
  7 66  1  0
  7 67  1  0
  7 68  1  0
  8 69  1  0
  8 70  1  0
  8 71  1  0
  9 72  1  0
  9 73  1  0
  9 74  1  0
 10 75  1  0
 11 76  1  0
 11 77  1  0
 12 78  1  0
 12 79  1  0
 13 80  1  0
 13 81  1  0
 14 82  1  0
 15 83  1  0
 15 84  1  0
 16 85  1  0
 16 86  1  0
 17 87  1  0
 17 88  1  0
 18 89  1  1
 19 90  1  6
 22 91  1  1
 23 92  1  1
 26 93  1  1
 27 94  1  1
 29 95  1  1
 30 96  1  6
 31 97  1  6
 32 98  1  6
 33 99  1  6
 34100  1  6
 39101  1  0
 40102  1  0
 41103  1  0
 42104  1  0
M  END

