
     RDKit          3D

 44 43  0  0  0  0  0  0  0  0999 V2000
    0.4374   -0.2122    1.1871 C   0  0  0  0  0  0  0  0  0  0  0  0
   -0.2870    0.7084    0.2529 C   0  0  0  0  0  0  0  0  0  0  0  0
    1.9082   -0.3364    0.7542 C   0  0  0  0  0  0  0  0  0  0  0  0
   -1.7545    0.8676    0.6674 C   0  0  0  0  0  0  0  0  0  0  0  0
    2.0123   -0.8843   -0.6221 C   0  0  0  0  0  0  0  0  0  0  0  0
   -2.4545   -0.4529    0.6504 C   0  0  0  0  0  0  0  0  0  0  0  0
    3.3562   -1.1717   -1.1026 C   0  0  0  0  0  0  0  0  0  0  0  0
   -3.8858   -0.2543    1.0584 C   0  0  0  0  0  0  0  0  0  0  0  0
    4.3881   -0.1475   -1.2013 C   0  0  0  0  0  0  0  0  0  0  0  0
   -4.6701    0.6593    0.1836 C   0  0  0  0  0  0  0  0  0  0  0  0
    4.9051    0.4718    0.0376 C   0  0  0  0  0  0  0  0  0  0  0  0
   -4.7582    0.2101   -1.2486 C   0  0  0  0  0  0  0  0  0  0  0  0
    6.0121    1.4830   -0.3858 C   0  0  0  0  0  0  0  0  0  0  0  0
   -5.3966   -1.1183   -1.4364 C   0  0  0  0  0  0  0  0  0  0  0  0
    0.0024   -1.2387    1.0854 H   0  0  0  0  0  0  0  0  0  0  0  0
    0.4377    0.1551    2.2279 H   0  0  0  0  0  0  0  0  0  0  0  0
    0.1901    1.6896    0.2278 H   0  0  0  0  0  0  0  0  0  0  0  0
   -0.3522    0.2769   -0.7795 H   0  0  0  0  0  0  0  0  0  0  0  0
    2.1878    0.7703    0.6525 H   0  0  0  0  0  0  0  0  0  0  0  0
    2.4701   -0.8395    1.5174 H   0  0  0  0  0  0  0  0  0  0  0  0
   -2.1768    1.5986   -0.0547 H   0  0  0  0  0  0  0  0  0  0  0  0
   -1.8284    1.2812    1.6935 H   0  0  0  0  0  0  0  0  0  0  0  0
    1.3810   -1.8346   -0.7299 H   0  0  0  0  0  0  0  0  0  0  0  0
    1.5179   -0.1652   -1.3590 H   0  0  0  0  0  0  0  0  0  0  0  0
   -2.3592   -0.9948   -0.3014 H   0  0  0  0  0  0  0  0  0  0  0  0
   -1.9811   -1.0841    1.4470 H   0  0  0  0  0  0  0  0  0  0  0  0
    3.2407   -1.6510   -2.1364 H   0  0  0  0  0  0  0  0  0  0  0  0
    3.7515   -2.0554   -0.4729 H   0  0  0  0  0  0  0  0  0  0  0  0
   -3.8534    0.2319    2.0784 H   0  0  0  0  0  0  0  0  0  0  0  0
   -4.4090   -1.2306    1.2501 H   0  0  0  0  0  0  0  0  0  0  0  0
    5.2832   -0.5536   -1.7801 H   0  0  0  0  0  0  0  0  0  0  0  0
    4.0602    0.7289   -1.8715 H   0  0  0  0  0  0  0  0  0  0  0  0
   -5.6641    0.8000    0.6490 H   0  0  0  0  0  0  0  0  0  0  0  0
   -4.1895    1.6580    0.1920 H   0  0  0  0  0  0  0  0  0  0  0  0
    5.4058   -0.3132    0.6739 H   0  0  0  0  0  0  0  0  0  0  0  0
    4.2515    1.0499    0.6551 H   0  0  0  0  0  0  0  0  0  0  0  0
   -5.4129    0.9691   -1.7705 H   0  0  0  0  0  0  0  0  0  0  0  0
   -3.7819    0.2797   -1.7541 H   0  0  0  0  0  0  0  0  0  0  0  0
    6.7851    1.4536    0.3851 H   0  0  0  0  0  0  0  0  0  0  0  0
    5.5918    2.5038   -0.4287 H   0  0  0  0  0  0  0  0  0  0  0  0
    6.3996    1.1901   -1.3769 H   0  0  0  0  0  0  0  0  0  0  0  0
   -6.5169   -1.0696   -1.4769 H   0  0  0  0  0  0  0  0  0  0  0  0
   -5.0809   -1.5770   -2.3968 H   0  0  0  0  0  0  0  0  0  0  0  0
   -5.1627   -1.8517   -0.6418 H   0  0  0  0  0  0  0  0  0  0  0  0
  1  2  1  0
  1  3  1  0
  2  4  1  0
  3  5  1  0
  4  6  1  0
  5  7  1  0
  6  8  1  0
  7  9  1  0
  8 10  1  0
  9 11  1  0
 10 12  1  0
 11 13  1  0
 12 14  1  0
  1 15  1  0
  1 16  1  0
  2 17  1  0
  2 18  1  0
  3 19  1  0
  3 20  1  0
  4 21  1  0
  4 22  1  0
  5 23  1  0
  5 24  1  0
  6 25  1  0
  6 26  1  0
  7 27  1  0
  7 28  1  0
  8 29  1  0
  8 30  1  0
  9 31  1  0
  9 32  1  0
 10 33  1  0
 10 34  1  0
 11 35  1  0
 11 36  1  0
 12 37  1  0
 12 38  1  0
 13 39  1  0
 13 40  1  0
 13 41  1  0
 14 42  1  0
 14 43  1  0
 14 44  1  0
M  END

