
     RDKit          3D

 20 19  0  0  0  0  0  0  0  0999 V2000
    0.5410   -1.0184   -0.2637 C   0  0  0  0  0  0  0  0  0  0  0  0
   -0.4038    0.1430   -0.0871 C   0  0  0  0  0  0  0  0  0  0  0  0
    1.9536   -0.4917   -0.3310 C   0  0  0  0  0  0  0  0  0  0  0  0
   -1.8393   -0.2823   -0.0090 C   0  0  0  0  0  0  0  0  0  0  0  0
    2.3633    0.2523    0.8996 C   0  0  0  0  0  0  0  0  0  0  0  0
   -2.6786    0.9741    0.1674 C   0  0  0  0  0  0  0  0  0  0  0  0
    0.3451   -1.6163   -1.1659 H   0  0  0  0  0  0  0  0  0  0  0  0
    0.4239   -1.6921    0.6076 H   0  0  0  0  0  0  0  0  0  0  0  0
   -0.1468    0.6085    0.8997 H   0  0  0  0  0  0  0  0  0  0  0  0
   -0.2519    0.8530   -0.8977 H   0  0  0  0  0  0  0  0  0  0  0  0
    2.1107    0.1458   -1.1994 H   0  0  0  0  0  0  0  0  0  0  0  0
    2.6342   -1.3779   -0.4231 H   0  0  0  0  0  0  0  0  0  0  0  0
   -2.1748   -0.8414   -0.9026 H   0  0  0  0  0  0  0  0  0  0  0  0
   -2.0155   -0.9316    0.8803 H   0  0  0  0  0  0  0  0  0  0  0  0
    2.1833    1.3622    0.8070 H   0  0  0  0  0  0  0  0  0  0  0  0
    1.9621   -0.1525    1.8345 H   0  0  0  0  0  0  0  0  0  0  0  0
    3.4863    0.1720    0.9759 H   0  0  0  0  0  0  0  0  0  0  0  0
   -2.1746    1.6205    0.9155 H   0  0  0  0  0  0  0  0  0  0  0  0
   -2.6178    1.5167   -0.8033 H   0  0  0  0  0  0  0  0  0  0  0  0
   -3.7005    0.7559    0.4844 H   0  0  0  0  0  0  0  0  0  0  0  0
  1  2  1  0
  1  3  1  0
  2  4  1  0
  3  5  1  0
  4  6  1  0
  1  7  1  0
  1  8  1  0
  2  9  1  0
  2 10  1  0
  3 11  1  0
  3 12  1  0
  4 13  1  0
  4 14  1  0
  5 15  1  0
  5 16  1  0
  5 17  1  0
  6 18  1  0
  6 19  1  0
  6 20  1  0
M  END

