
     RDKit          3D

104103  0  0  0  0  0  0  0  0999 V2000
   -1.7462   -2.7425    1.4069 C   0  0  0  0  0  0  0  0  0  0  0  0
   -0.2762   -2.3664    1.1411 C   0  0  0  0  0  0  0  0  0  0  0  0
    0.6413   -3.2538    1.8920 C   0  0  0  0  0  0  0  0  0  0  0  0
    2.1040   -3.0772    1.7067 C   0  0  0  0  0  0  0  0  0  0  0  0
    2.7689   -1.8111    2.0199 C   0  0  0  0  0  0  0  0  0  0  0  0
    2.4395   -0.5807    1.2816 C   0  0  0  0  0  0  0  0  0  0  0  0
    2.6581   -0.6851   -0.2130 C   0  0  0  0  0  0  0  0  0  0  0  0
    4.1316   -1.0044   -0.5381 C   0  0  0  0  0  0  0  0  0  0  0  0
    4.2321   -1.0869   -2.0097 C   0  0  0  0  0  0  0  0  0  0  0  0
    5.5278   -1.4969   -2.5916 C   0  0  0  0  0  0  0  0  0  0  0  0
    6.7711   -0.7474   -2.3414 C   0  0  0  0  0  0  0  0  0  0  0  0
    7.3098   -0.7407   -0.9684 C   0  0  0  0  0  0  0  0  0  0  0  0
    8.5960    0.0721   -0.8562 C   0  0  0  0  0  0  0  0  0  0  0  0
    8.4559    1.4951   -1.2413 C   0  0  0  0  0  0  0  0  0  0  0  0
    7.4677    2.3016   -0.4387 C   0  0  0  0  0  0  0  0  0  0  0  0
    7.8003    2.3480    1.0298 C   0  0  0  0  0  0  0  0  0  0  0  0
    6.7544    3.1438    1.7475 C   0  0  0  0  0  0  0  0  0  0  0  0
    6.6787    4.5567    1.2378 C   0  0  0  0  0  0  0  0  0  0  0  0
    5.6222    5.3451    1.9939 C   0  0  0  0  0  0  0  0  0  0  0  0
   -2.0894   -4.1159    0.9770 C   0  0  0  0  0  0  0  0  0  0  0  0
   -3.5298   -4.4320    1.2608 C   0  0  0  0  0  0  0  0  0  0  0  0
   -4.4186   -3.4604    0.5265 C   0  0  0  0  0  0  0  0  0  0  0  0
   -5.8850   -3.7911    0.7446 C   0  0  0  0  0  0  0  0  0  0  0  0
   -6.7342   -2.7861    0.0362 C   0  0  0  0  0  0  0  0  0  0  0  0
   -6.4699   -2.7376   -1.4274 C   0  0  0  0  0  0  0  0  0  0  0  0
   -7.3459   -1.7733   -2.1587 C   0  0  0  0  0  0  0  0  0  0  0  0
   -7.1852   -0.3838   -1.6102 C   0  0  0  0  0  0  0  0  0  0  0  0
   -5.7513    0.0482   -1.7464 C   0  0  0  0  0  0  0  0  0  0  0  0
   -5.6246    1.4686   -1.2277 C   0  0  0  0  0  0  0  0  0  0  0  0
   -6.0308    1.4987    0.2174 C   0  0  0  0  0  0  0  0  0  0  0  0
   -5.9086    2.8966    0.8238 C   0  0  0  0  0  0  0  0  0  0  0  0
   -6.7976    3.8368    0.0748 C   0  0  0  0  0  0  0  0  0  0  0  0
   -6.7493    5.2468    0.6355 C   0  0  0  0  0  0  0  0  0  0  0  0
   -7.1963    5.2404    2.0954 C   0  0  0  0  0  0  0  0  0  0  0  0
   -1.9361   -2.5796    2.4760 H   0  0  0  0  0  0  0  0  0  0  0  0
   -2.3239   -1.9864    0.8303 H   0  0  0  0  0  0  0  0  0  0  0  0
   -0.2071   -1.3505    1.5923 H   0  0  0  0  0  0  0  0  0  0  0  0
   -0.0952   -2.3917    0.0705 H   0  0  0  0  0  0  0  0  0  0  0  0
    0.3845   -3.2513    3.0087 H   0  0  0  0  0  0  0  0  0  0  0  0
    0.4469   -4.3568    1.6443 H   0  0  0  0  0  0  0  0  0  0  0  0
    2.3683   -3.4516    0.6705 H   0  0  0  0  0  0  0  0  0  0  0  0
    2.5768   -3.9021    2.3576 H   0  0  0  0  0  0  0  0  0  0  0  0
    3.8976   -1.9538    1.9201 H   0  0  0  0  0  0  0  0  0  0  0  0
    2.6904   -1.5430    3.1258 H   0  0  0  0  0  0  0  0  0  0  0  0
    3.2665    0.1757    1.6060 H   0  0  0  0  0  0  0  0  0  0  0  0
    1.5350   -0.0399    1.4840 H   0  0  0  0  0  0  0  0  0  0  0  0
    1.9705   -1.3966   -0.6811 H   0  0  0  0  0  0  0  0  0  0  0  0
    2.4713    0.3166   -0.6460 H   0  0  0  0  0  0  0  0  0  0  0  0
    4.5267   -1.8503   -0.0035 H   0  0  0  0  0  0  0  0  0  0  0  0
    4.6354   -0.0684   -0.1298 H   0  0  0  0  0  0  0  0  0  0  0  0
    3.8954   -0.0819   -2.4091 H   0  0  0  0  0  0  0  0  0  0  0  0
    3.4159   -1.7676   -2.4387 H   0  0  0  0  0  0  0  0  0  0  0  0
    5.3940   -1.5170   -3.7446 H   0  0  0  0  0  0  0  0  0  0  0  0
    5.6890   -2.6250   -2.4192 H   0  0  0  0  0  0  0  0  0  0  0  0
    6.6014    0.2970   -2.7451 H   0  0  0  0  0  0  0  0  0  0  0  0
    7.5559   -1.1900   -3.0263 H   0  0  0  0  0  0  0  0  0  0  0  0
    6.6765   -0.5583   -0.1225 H   0  0  0  0  0  0  0  0  0  0  0  0
    7.6917   -1.8133   -0.7949 H   0  0  0  0  0  0  0  0  0  0  0  0
    8.9530   -0.0544    0.1719 H   0  0  0  0  0  0  0  0  0  0  0  0
    9.3331   -0.4164   -1.5246 H   0  0  0  0  0  0  0  0  0  0  0  0
    8.2494    1.6281   -2.3277 H   0  0  0  0  0  0  0  0  0  0  0  0
    9.4645    1.9705   -1.0715 H   0  0  0  0  0  0  0  0  0  0  0  0
    6.4218    2.0762   -0.6367 H   0  0  0  0  0  0  0  0  0  0  0  0
    7.6189    3.3662   -0.8068 H   0  0  0  0  0  0  0  0  0  0  0  0
    8.7676    2.8983    1.1526 H   0  0  0  0  0  0  0  0  0  0  0  0
    7.9271    1.3373    1.4652 H   0  0  0  0  0  0  0  0  0  0  0  0
    5.7500    2.6751    1.5958 H   0  0  0  0  0  0  0  0  0  0  0  0
    6.8924    3.1304    2.8563 H   0  0  0  0  0  0  0  0  0  0  0  0
    7.6458    5.0785    1.2847 H   0  0  0  0  0  0  0  0  0  0  0  0
    6.3304    4.5168    0.1731 H   0  0  0  0  0  0  0  0  0  0  0  0
    5.9921    6.3850    2.0858 H   0  0  0  0  0  0  0  0  0  0  0  0
    4.6762    5.3498    1.4473 H   0  0  0  0  0  0  0  0  0  0  0  0
    5.5247    4.9188    3.0256 H   0  0  0  0  0  0  0  0  0  0  0  0
   -1.9324   -4.1635   -0.1361 H   0  0  0  0  0  0  0  0  0  0  0  0
   -1.4130   -4.9003    1.3869 H   0  0  0  0  0  0  0  0  0  0  0  0
   -3.6856   -4.2484    2.3627 H   0  0  0  0  0  0  0  0  0  0  0  0
   -3.7852   -5.4850    1.0052 H   0  0  0  0  0  0  0  0  0  0  0  0
   -4.1275   -3.5181   -0.5319 H   0  0  0  0  0  0  0  0  0  0  0  0
   -4.2088   -2.4331    0.8809 H   0  0  0  0  0  0  0  0  0  0  0  0
   -6.0704   -3.7358    1.8454 H   0  0  0  0  0  0  0  0  0  0  0  0
   -6.0930   -4.8141    0.3406 H   0  0  0  0  0  0  0  0  0  0  0  0
   -7.7918   -3.0039    0.2817 H   0  0  0  0  0  0  0  0  0  0  0  0
   -6.5228   -1.7857    0.4994 H   0  0  0  0  0  0  0  0  0  0  0  0
   -6.6027   -3.7318   -1.9228 H   0  0  0  0  0  0  0  0  0  0  0  0
   -5.4056   -2.4813   -1.6118 H   0  0  0  0  0  0  0  0  0  0  0  0
   -8.3981   -2.1248   -2.0721 H   0  0  0  0  0  0  0  0  0  0  0  0
   -7.0618   -1.8199   -3.2344 H   0  0  0  0  0  0  0  0  0  0  0  0
   -7.8740    0.2953   -2.1797 H   0  0  0  0  0  0  0  0  0  0  0  0
   -7.5373   -0.4283   -0.5453 H   0  0  0  0  0  0  0  0  0  0  0  0
   -5.1159   -0.5859   -1.0664 H   0  0  0  0  0  0  0  0  0  0  0  0
   -5.3712   -0.0494   -2.7734 H   0  0  0  0  0  0  0  0  0  0  0  0
   -6.2579    2.1253   -1.8662 H   0  0  0  0  0  0  0  0  0  0  0  0
   -4.5752    1.8144   -1.3427 H   0  0  0  0  0  0  0  0  0  0  0  0
   -7.1240    1.2567    0.3448 H   0  0  0  0  0  0  0  0  0  0  0  0
   -5.4574    0.7453    0.7611 H   0  0  0  0  0  0  0  0  0  0  0  0
   -6.1604    2.8022    1.8788 H   0  0  0  0  0  0  0  0  0  0  0  0
   -4.8512    3.1977    0.6897 H   0  0  0  0  0  0  0  0  0  0  0  0
   -7.8559    3.5060    0.1031 H   0  0  0  0  0  0  0  0  0  0  0  0
   -6.4454    3.9282   -0.9894 H   0  0  0  0  0  0  0  0  0  0  0  0
   -5.7487    5.6594    0.5552 H   0  0  0  0  0  0  0  0  0  0  0  0
   -7.4873    5.8595    0.0702 H   0  0  0  0  0  0  0  0  0  0  0  0
   -7.7033    6.1960    2.2828 H   0  0  0  0  0  0  0  0  0  0  0  0
   -6.3461    5.1424    2.7921 H   0  0  0  0  0  0  0  0  0  0  0  0
   -7.8847    4.3817    2.2118 H   0  0  0  0  0  0  0  0  0  0  0  0
  1  2  1  0
  1 20  1  0
  2  3  1  0
  3  4  1  0
  4  5  1  0
  5  6  1  0
  6  7  1  0
  7  8  1  0
  8  9  1  0
  9 10  1  0
 10 11  1  0
 11 12  1  0
 12 13  1  0
 13 14  1  0
 14 15  1  0
 15 16  1  0
 16 17  1  0
 17 18  1  0
 18 19  1  0
 20 21  1  0
 21 22  1  0
 22 23  1  0
 23 24  1  0
 24 25  1  0
 25 26  1  0
 26 27  1  0
 27 28  1  0
 28 29  1  0
 29 30  1  0
 30 31  1  0
 31 32  1  0
 32 33  1  0
 33 34  1  0
  1 35  1  0
  1 36  1  0
  2 37  1  0
  2 38  1  0
  3 39  1  0
  3 40  1  0
  4 41  1  0
  4 42  1  0
  5 43  1  0
  5 44  1  0
  6 45  1  0
  6 46  1  0
  7 47  1  0
  7 48  1  0
  8 49  1  0
  8 50  1  0
  9 51  1  0
  9 52  1  0
 10 53  1  0
 10 54  1  0
 11 55  1  0
 11 56  1  0
 12 57  1  0
 12 58  1  0
 13 59  1  0
 13 60  1  0
 14 61  1  0
 14 62  1  0
 15 63  1  0
 15 64  1  0
 16 65  1  0
 16 66  1  0
 17 67  1  0
 17 68  1  0
 18 69  1  0
 18 70  1  0
 19 71  1  0
 19 72  1  0
 19 73  1  0
 20 74  1  0
 20 75  1  0
 21 76  1  0
 21 77  1  0
 22 78  1  0
 22 79  1  0
 23 80  1  0
 23 81  1  0
 24 82  1  0
 24 83  1  0
 25 84  1  0
 25 85  1  0
 26 86  1  0
 26 87  1  0
 27 88  1  0
 27 89  1  0
 28 90  1  0
 28 91  1  0
 29 92  1  0
 29 93  1  0
 30 94  1  0
 30 95  1  0
 31 96  1  0
 31 97  1  0
 32 98  1  0
 32 99  1  0
 33100  1  0
 33101  1  0
 34102  1  0
 34103  1  0
 34104  1  0
M  END

