
     RDKit          3D

 92 91  0  0  0  0  0  0  0  0999 V2000
    3.1985    1.1081    1.3983 C   0  0  0  0  0  0  0  0  0  0  0  0
    2.4447    0.2638    0.4294 C   0  0  0  0  0  0  0  0  0  0  0  0
    1.5148    1.1631   -0.3645 C   0  0  0  0  0  0  0  0  0  0  0  0
    0.6936    0.4321   -1.3859 C   0  0  0  0  0  0  0  0  0  0  0  0
   -0.1572   -0.6011   -0.7092 C   0  0  0  0  0  0  0  0  0  0  0  0
   -1.0568    0.0324    0.3080 C   0  0  0  0  0  0  0  0  0  0  0  0
   -1.9580    1.0313   -0.3327 C   0  0  0  0  0  0  0  0  0  0  0  0
   -2.9000    1.6636    0.7162 C   0  0  0  0  0  0  0  0  0  0  0  0
   -3.7520    2.6655   -0.0687 C   0  0  0  0  0  0  0  0  0  0  0  0
   -4.7214    3.3739    0.7913 C   0  0  0  0  0  0  0  0  0  0  0  0
   -5.6995    2.6034    1.5495 C   0  0  0  0  0  0  0  0  0  0  0  0
   -6.7341    1.7701    0.9322 C   0  0  0  0  0  0  0  0  0  0  0  0
   -6.3677    0.6239    0.0830 C   0  0  0  0  0  0  0  0  0  0  0  0
   -7.6364   -0.0771   -0.3947 C   0  0  0  0  0  0  0  0  0  0  0  0
   -8.4847   -0.6087    0.7190 C   0  0  0  0  0  0  0  0  0  0  0  0
   -9.7151   -1.2941    0.1060 C   0  0  0  0  0  0  0  0  0  0  0  0
   -9.3442   -2.4321   -0.7956 C   0  0  0  0  0  0  0  0  0  0  0  0
  -10.6543   -3.0154   -1.3281 C   0  0  0  0  0  0  0  0  0  0  0  0
  -11.4561   -3.4803   -0.1342 C   0  0  0  0  0  0  0  0  0  0  0  0
    3.9858    2.1954    0.8223 C   0  0  0  0  0  0  0  0  0  0  0  0
    5.1175    1.9823   -0.0705 C   0  0  0  0  0  0  0  0  0  0  0  0
    4.9799    1.3212   -1.3819 C   0  0  0  0  0  0  0  0  0  0  0  0
    6.3339    1.3129   -2.1310 C   0  0  0  0  0  0  0  0  0  0  0  0
    7.3957    0.5883   -1.3579 C   0  0  0  0  0  0  0  0  0  0  0  0
    6.9990   -0.8319   -1.1127 C   0  0  0  0  0  0  0  0  0  0  0  0
    8.0386   -1.6183   -0.3147 C   0  0  0  0  0  0  0  0  0  0  0  0
    9.3488   -1.6854   -1.0003 C   0  0  0  0  0  0  0  0  0  0  0  0
   10.3878   -2.4765   -0.3062 C   0  0  0  0  0  0  0  0  0  0  0  0
   10.8245   -2.0816    1.0489 C   0  0  0  0  0  0  0  0  0  0  0  0
    9.8272   -2.1116    2.1464 C   0  0  0  0  0  0  0  0  0  0  0  0
    2.3970    1.5281    2.1104 H   0  0  0  0  0  0  0  0  0  0  0  0
    3.8041    0.4476    2.0939 H   0  0  0  0  0  0  0  0  0  0  0  0
    1.7872   -0.4804    1.0237 H   0  0  0  0  0  0  0  0  0  0  0  0
    2.9926   -0.3718   -0.2417 H   0  0  0  0  0  0  0  0  0  0  0  0
    0.8989    1.7223    0.3646 H   0  0  0  0  0  0  0  0  0  0  0  0
    2.2029    1.9088   -0.8600 H   0  0  0  0  0  0  0  0  0  0  0  0
    0.0278    1.1671   -1.8808 H   0  0  0  0  0  0  0  0  0  0  0  0
    1.3576   -0.0408   -2.1656 H   0  0  0  0  0  0  0  0  0  0  0  0
   -0.7455   -1.1733   -1.4764 H   0  0  0  0  0  0  0  0  0  0  0  0
    0.5116   -1.3678   -0.2374 H   0  0  0  0  0  0  0  0  0  0  0  0
   -0.4933    0.5053    1.1422 H   0  0  0  0  0  0  0  0  0  0  0  0
   -1.6843   -0.7527    0.8164 H   0  0  0  0  0  0  0  0  0  0  0  0
   -2.6260    0.5137   -1.0494 H   0  0  0  0  0  0  0  0  0  0  0  0
   -1.4314    1.8892   -0.8007 H   0  0  0  0  0  0  0  0  0  0  0  0
   -3.5068    0.8380    1.1234 H   0  0  0  0  0  0  0  0  0  0  0  0
   -2.3288    2.1552    1.5075 H   0  0  0  0  0  0  0  0  0  0  0  0
   -2.9423    3.4098   -0.4369 H   0  0  0  0  0  0  0  0  0  0  0  0
   -4.0994    2.1737   -0.9717 H   0  0  0  0  0  0  0  0  0  0  0  0
   -4.1367    4.0029    1.5512 H   0  0  0  0  0  0  0  0  0  0  0  0
   -5.2061    4.1945    0.1543 H   0  0  0  0  0  0  0  0  0  0  0  0
   -6.2336    3.3094    2.2665 H   0  0  0  0  0  0  0  0  0  0  0  0
   -5.1271    1.9358    2.2744 H   0  0  0  0  0  0  0  0  0  0  0  0
   -7.5192    2.3838    0.3905 H   0  0  0  0  0  0  0  0  0  0  0  0
   -7.3521    1.3581    1.8063 H   0  0  0  0  0  0  0  0  0  0  0  0
   -5.8010   -0.1557    0.6554 H   0  0  0  0  0  0  0  0  0  0  0  0
   -5.8660    0.9229   -0.8463 H   0  0  0  0  0  0  0  0  0  0  0  0
   -7.2572   -0.9826   -0.9548 H   0  0  0  0  0  0  0  0  0  0  0  0
   -8.1930    0.5099   -1.1329 H   0  0  0  0  0  0  0  0  0  0  0  0
   -7.9790   -1.3916    1.3119 H   0  0  0  0  0  0  0  0  0  0  0  0
   -8.8655    0.1682    1.4092 H   0  0  0  0  0  0  0  0  0  0  0  0
  -10.3460   -1.6228    0.9485 H   0  0  0  0  0  0  0  0  0  0  0  0
  -10.3122   -0.5589   -0.4734 H   0  0  0  0  0  0  0  0  0  0  0  0
   -8.8078   -3.1958   -0.1925 H   0  0  0  0  0  0  0  0  0  0  0  0
   -8.7869   -2.1056   -1.6913 H   0  0  0  0  0  0  0  0  0  0  0  0
  -11.1951   -2.2052   -1.8551 H   0  0  0  0  0  0  0  0  0  0  0  0
  -10.4650   -3.8616   -2.0262 H   0  0  0  0  0  0  0  0  0  0  0  0
  -12.0166   -4.3861   -0.4467 H   0  0  0  0  0  0  0  0  0  0  0  0
  -10.7548   -3.6911    0.6908 H   0  0  0  0  0  0  0  0  0  0  0  0
  -12.2208   -2.7206    0.1226 H   0  0  0  0  0  0  0  0  0  0  0  0
    3.2882    3.0274    0.4163 H   0  0  0  0  0  0  0  0  0  0  0  0
    4.4124    2.7868    1.7332 H   0  0  0  0  0  0  0  0  0  0  0  0
    5.6770    2.9848   -0.1976 H   0  0  0  0  0  0  0  0  0  0  0  0
    5.9115    1.4236    0.5632 H   0  0  0  0  0  0  0  0  0  0  0  0
    4.6187    0.2927   -1.4045 H   0  0  0  0  0  0  0  0  0  0  0  0
    4.3137    1.9350   -2.0219 H   0  0  0  0  0  0  0  0  0  0  0  0
    6.5808    2.3433   -2.3824 H   0  0  0  0  0  0  0  0  0  0  0  0
    6.1375    0.7448   -3.0624 H   0  0  0  0  0  0  0  0  0  0  0  0
    8.3581    0.6426   -1.9483 H   0  0  0  0  0  0  0  0  0  0  0  0
    7.6504    1.0589   -0.3898 H   0  0  0  0  0  0  0  0  0  0  0  0
    6.0521   -0.9251   -0.5454 H   0  0  0  0  0  0  0  0  0  0  0  0
    6.8264   -1.3209   -2.0919 H   0  0  0  0  0  0  0  0  0  0  0  0
    8.1977   -1.0471    0.6482 H   0  0  0  0  0  0  0  0  0  0  0  0
    7.6117   -2.6177   -0.1348 H   0  0  0  0  0  0  0  0  0  0  0  0
    9.7390   -0.6520   -1.2744 H   0  0  0  0  0  0  0  0  0  0  0  0
    9.1986   -2.1550   -2.0085 H   0  0  0  0  0  0  0  0  0  0  0  0
   11.3303   -2.4867   -0.9457 H   0  0  0  0  0  0  0  0  0  0  0  0
   10.0659   -3.5604   -0.2775 H   0  0  0  0  0  0  0  0  0  0  0  0
   11.6686   -2.7927    1.3237 H   0  0  0  0  0  0  0  0  0  0  0  0
   11.3243   -1.0758    1.0505 H   0  0  0  0  0  0  0  0  0  0  0  0
   10.3486   -2.5652    3.0600 H   0  0  0  0  0  0  0  0  0  0  0  0
    9.5960   -1.0764    2.4883 H   0  0  0  0  0  0  0  0  0  0  0  0
    8.9592   -2.7620    2.0082 H   0  0  0  0  0  0  0  0  0  0  0  0
  1  2  1  0
  1 20  1  0
  2  3  1  0
  3  4  1  0
  4  5  1  0
  5  6  1  0
  6  7  1  0
  7  8  1  0
  8  9  1  0
  9 10  1  0
 10 11  1  0
 11 12  1  0
 12 13  1  0
 13 14  1  0
 14 15  1  0
 15 16  1  0
 16 17  1  0
 17 18  1  0
 18 19  1  0
 20 21  1  0
 21 22  1  0
 22 23  1  0
 23 24  1  0
 24 25  1  0
 25 26  1  0
 26 27  1  0
 27 28  1  0
 28 29  1  0
 29 30  1  0
  1 31  1  0
  1 32  1  0
  2 33  1  0
  2 34  1  0
  3 35  1  0
  3 36  1  0
  4 37  1  0
  4 38  1  0
  5 39  1  0
  5 40  1  0
  6 41  1  0
  6 42  1  0
  7 43  1  0
  7 44  1  0
  8 45  1  0
  8 46  1  0
  9 47  1  0
  9 48  1  0
 10 49  1  0
 10 50  1  0
 11 51  1  0
 11 52  1  0
 12 53  1  0
 12 54  1  0
 13 55  1  0
 13 56  1  0
 14 57  1  0
 14 58  1  0
 15 59  1  0
 15 60  1  0
 16 61  1  0
 16 62  1  0
 17 63  1  0
 17 64  1  0
 18 65  1  0
 18 66  1  0
 19 67  1  0
 19 68  1  0
 19 69  1  0
 20 70  1  0
 20 71  1  0
 21 72  1  0
 21 73  1  0
 22 74  1  0
 22 75  1  0
 23 76  1  0
 23 77  1  0
 24 78  1  0
 24 79  1  0
 25 80  1  0
 25 81  1  0
 26 82  1  0
 26 83  1  0
 27 84  1  0
 27 85  1  0
 28 86  1  0
 28 87  1  0
 29 88  1  0
 29 89  1  0
 30 90  1  0
 30 91  1  0
 30 92  1  0
M  END

