
     RDKit          3D

128127  0  0  0  0  0  0  0  0999 V2000
   -2.5813   -1.6645    0.3669 C   0  0  0  0  0  0  0  0  0  0  0  0
   -3.1195   -0.2903    0.0332 C   0  0  0  0  0  0  0  0  0  0  0  0
   -4.1498   -0.3450   -1.0429 C   0  0  0  0  0  0  0  0  0  0  0  0
   -5.3616   -1.1523   -0.7310 C   0  0  0  0  0  0  0  0  0  0  0  0
   -6.1376   -0.6730    0.4749 C   0  0  0  0  0  0  0  0  0  0  0  0
   -6.6006    0.7349    0.3405 C   0  0  0  0  0  0  0  0  0  0  0  0
   -7.4338    1.1880    1.4680 C   0  0  0  0  0  0  0  0  0  0  0  0
   -8.8141    0.8426    1.6710 C   0  0  0  0  0  0  0  0  0  0  0  0
   -9.4606   -0.4564    1.6687 C   0  0  0  0  0  0  0  0  0  0  0  0
   -9.6564   -1.2046    0.4029 C   0  0  0  0  0  0  0  0  0  0  0  0
  -10.4999   -0.4109   -0.5973 C   0  0  0  0  0  0  0  0  0  0  0  0
  -11.8692   -0.0770   -0.0462 C   0  0  0  0  0  0  0  0  0  0  0  0
  -12.6608    0.7147   -1.0824 C   0  0  0  0  0  0  0  0  0  0  0  0
  -14.0338    1.0319   -0.4545 C   0  0  0  0  0  0  0  0  0  0  0  0
  -14.8748    1.8012   -1.3939 C   0  0  0  0  0  0  0  0  0  0  0  0
  -16.2095    2.1548   -0.8937 C   0  0  0  0  0  0  0  0  0  0  0  0
  -17.2454    1.1605   -0.6244 C   0  0  0  0  0  0  0  0  0  0  0  0
  -17.0537    0.0592    0.3338 C   0  0  0  0  0  0  0  0  0  0  0  0
  -18.4165   -0.7064    0.4175 C   0  0  0  0  0  0  0  0  0  0  0  0
   -1.5363   -1.5903    1.4637 C   0  0  0  0  0  0  0  0  0  0  0  0
   -0.3770   -0.7140    1.0782 C   0  0  0  0  0  0  0  0  0  0  0  0
    0.2688   -1.2819   -0.1650 C   0  0  0  0  0  0  0  0  0  0  0  0
    1.4212   -0.4376   -0.6381 C   0  0  0  0  0  0  0  0  0  0  0  0
    2.5399   -0.2551    0.2988 C   0  0  0  0  0  0  0  0  0  0  0  0
    3.2885   -1.4571    0.7382 C   0  0  0  0  0  0  0  0  0  0  0  0
    3.9473   -2.2117   -0.3876 C   0  0  0  0  0  0  0  0  0  0  0  0
    4.9128   -1.3897   -1.1750 C   0  0  0  0  0  0  0  0  0  0  0  0
    6.0576   -0.8060   -0.3900 C   0  0  0  0  0  0  0  0  0  0  0  0
    6.8910    0.0053   -1.3554 C   0  0  0  0  0  0  0  0  0  0  0  0
    8.0516    0.6839   -0.7017 C   0  0  0  0  0  0  0  0  0  0  0  0
    8.9809   -0.3061   -0.1004 C   0  0  0  0  0  0  0  0  0  0  0  0
   10.1709    0.3603    0.5892 C   0  0  0  0  0  0  0  0  0  0  0  0
   10.9497    1.1866   -0.3712 C   0  0  0  0  0  0  0  0  0  0  0  0
   11.4870    0.3588   -1.5031 C   0  0  0  0  0  0  0  0  0  0  0  0
   12.4055   -0.7456   -1.0725 C   0  0  0  0  0  0  0  0  0  0  0  0
   13.6016   -0.1270   -0.3227 C   0  0  0  0  0  0  0  0  0  0  0  0
   14.5643   -1.1697    0.1026 C   0  0  0  0  0  0  0  0  0  0  0  0
   15.7384   -0.7076    0.8485 C   0  0  0  0  0  0  0  0  0  0  0  0
   16.7258    0.2014    0.3100 C   0  0  0  0  0  0  0  0  0  0  0  0
   16.5445    1.5756   -0.1149 C   0  0  0  0  0  0  0  0  0  0  0  0
   16.1117    2.6345    0.8160 C   0  0  0  0  0  0  0  0  0  0  0  0
   14.7678    2.4932    1.4410 C   0  0  0  0  0  0  0  0  0  0  0  0
   -2.2381   -2.2094   -0.5343 H   0  0  0  0  0  0  0  0  0  0  0  0
   -3.4273   -2.2482    0.7869 H   0  0  0  0  0  0  0  0  0  0  0  0
   -3.5717    0.1498    0.9437 H   0  0  0  0  0  0  0  0  0  0  0  0
   -2.3023    0.4126   -0.2482 H   0  0  0  0  0  0  0  0  0  0  0  0
   -3.7057   -0.6832   -2.0114 H   0  0  0  0  0  0  0  0  0  0  0  0
   -4.4983    0.7055   -1.2718 H   0  0  0  0  0  0  0  0  0  0  0  0
   -6.0584   -1.2403   -1.5898 H   0  0  0  0  0  0  0  0  0  0  0  0
   -5.0682   -2.2130   -0.4922 H   0  0  0  0  0  0  0  0  0  0  0  0
   -6.8752   -1.3540    0.8018 H   0  0  0  0  0  0  0  0  0  0  0  0
   -5.3463   -0.7019    1.3152 H   0  0  0  0  0  0  0  0  0  0  0  0
   -7.1964    0.8611   -0.6214 H   0  0  0  0  0  0  0  0  0  0  0  0
   -5.7269    1.4267    0.1680 H   0  0  0  0  0  0  0  0  0  0  0  0
   -6.7953    0.9702    2.4283 H   0  0  0  0  0  0  0  0  0  0  0  0
   -7.3633    2.3548    1.4242 H   0  0  0  0  0  0  0  0  0  0  0  0
   -9.4235    1.5899    1.0083 H   0  0  0  0  0  0  0  0  0  0  0  0
   -9.1134    1.3113    2.7105 H   0  0  0  0  0  0  0  0  0  0  0  0
  -10.4284   -0.4633    2.2902 H   0  0  0  0  0  0  0  0  0  0  0  0
   -8.8133   -1.1488    2.3198 H   0  0  0  0  0  0  0  0  0  0  0  0
  -10.2909   -2.1011    0.6522 H   0  0  0  0  0  0  0  0  0  0  0  0
   -8.7771   -1.5015   -0.1121 H   0  0  0  0  0  0  0  0  0  0  0  0
  -10.6435   -1.0756   -1.4755 H   0  0  0  0  0  0  0  0  0  0  0  0
   -9.9798    0.4956   -0.9573 H   0  0  0  0  0  0  0  0  0  0  0  0
  -11.7913    0.4954    0.8907 H   0  0  0  0  0  0  0  0  0  0  0  0
  -12.4590   -0.9905    0.1650 H   0  0  0  0  0  0  0  0  0  0  0  0
  -12.1905    1.6865   -1.3115 H   0  0  0  0  0  0  0  0  0  0  0  0
  -12.7695    0.1589   -2.0221 H   0  0  0  0  0  0  0  0  0  0  0  0
  -13.7479    1.7609    0.3878 H   0  0  0  0  0  0  0  0  0  0  0  0
  -14.4362    0.1800    0.0608 H   0  0  0  0  0  0  0  0  0  0  0  0
  -14.9111    1.3256   -2.4202 H   0  0  0  0  0  0  0  0  0  0  0  0
  -14.3491    2.7913   -1.6250 H   0  0  0  0  0  0  0  0  0  0  0  0
  -16.7091    2.9388   -1.5845 H   0  0  0  0  0  0  0  0  0  0  0  0
  -16.1022    2.8014    0.0564 H   0  0  0  0  0  0  0  0  0  0  0  0
  -17.5709    0.6833   -1.6144 H   0  0  0  0  0  0  0  0  0  0  0  0
  -18.1940    1.7323   -0.3125 H   0  0  0  0  0  0  0  0  0  0  0  0
  -16.7639    0.2995    1.3468 H   0  0  0  0  0  0  0  0  0  0  0  0
  -16.3576   -0.7148   -0.0885 H   0  0  0  0  0  0  0  0  0  0  0  0
  -18.6741   -0.9801   -0.6155 H   0  0  0  0  0  0  0  0  0  0  0  0
  -19.1236    0.0162    0.8648 H   0  0  0  0  0  0  0  0  0  0  0  0
  -18.2721   -1.5507    1.0972 H   0  0  0  0  0  0  0  0  0  0  0  0
   -2.0398   -1.2606    2.3787 H   0  0  0  0  0  0  0  0  0  0  0  0
   -1.1605   -2.6202    1.6252 H   0  0  0  0  0  0  0  0  0  0  0  0
    0.3529   -0.8126    1.9389 H   0  0  0  0  0  0  0  0  0  0  0  0
   -0.6442    0.3273    0.9073 H   0  0  0  0  0  0  0  0  0  0  0  0
   -0.4979   -1.2480   -0.9679 H   0  0  0  0  0  0  0  0  0  0  0  0
    0.5123   -2.3262    0.0232 H   0  0  0  0  0  0  0  0  0  0  0  0
    1.7461   -0.8546   -1.6147 H   0  0  0  0  0  0  0  0  0  0  0  0
    1.0052    0.5726   -0.8725 H   0  0  0  0  0  0  0  0  0  0  0  0
    2.1459    0.2352    1.2388 H   0  0  0  0  0  0  0  0  0  0  0  0
    3.2143    0.5450   -0.1300 H   0  0  0  0  0  0  0  0  0  0  0  0
    2.5588   -2.1597    1.2015 H   0  0  0  0  0  0  0  0  0  0  0  0
    3.9909   -1.1774    1.5351 H   0  0  0  0  0  0  0  0  0  0  0  0
    3.1555   -2.5620   -1.0708 H   0  0  0  0  0  0  0  0  0  0  0  0
    4.4188   -3.1112    0.0522 H   0  0  0  0  0  0  0  0  0  0  0  0
    5.3198   -2.0326   -1.9826 H   0  0  0  0  0  0  0  0  0  0  0  0
    4.3885   -0.5518   -1.6776 H   0  0  0  0  0  0  0  0  0  0  0  0
    6.7174   -1.5899    0.0326 H   0  0  0  0  0  0  0  0  0  0  0  0
    5.6774   -0.0939    0.3711 H   0  0  0  0  0  0  0  0  0  0  0  0
    7.2641   -0.7293   -2.1292 H   0  0  0  0  0  0  0  0  0  0  0  0
    6.2560    0.7130   -1.9415 H   0  0  0  0  0  0  0  0  0  0  0  0
    7.6219    1.3769    0.0758 H   0  0  0  0  0  0  0  0  0  0  0  0
    8.5293    1.3430   -1.4587 H   0  0  0  0  0  0  0  0  0  0  0  0
    8.4558   -0.9075    0.6782 H   0  0  0  0  0  0  0  0  0  0  0  0
    9.4029   -1.0230   -0.8292 H   0  0  0  0  0  0  0  0  0  0  0  0
    9.7123    0.9748    1.4131 H   0  0  0  0  0  0  0  0  0  0  0  0
   10.7763   -0.4666    1.0120 H   0  0  0  0  0  0  0  0  0  0  0  0
   11.7825    1.6866    0.1750 H   0  0  0  0  0  0  0  0  0  0  0  0
   10.3148    1.9840   -0.8630 H   0  0  0  0  0  0  0  0  0  0  0  0
   12.0498    1.0826   -2.1660 H   0  0  0  0  0  0  0  0  0  0  0  0
   10.6455   -0.0467   -2.1093 H   0  0  0  0  0  0  0  0  0  0  0  0
   12.7858   -1.2785   -1.9512 H   0  0  0  0  0  0  0  0  0  0  0  0
   11.8583   -1.4453   -0.4092 H   0  0  0  0  0  0  0  0  0  0  0  0
   14.0733    0.6023   -0.9769 H   0  0  0  0  0  0  0  0  0  0  0  0
   13.1382    0.2860    0.6026 H   0  0  0  0  0  0  0  0  0  0  0  0
   14.8807   -1.8164   -0.7694 H   0  0  0  0  0  0  0  0  0  0  0  0
   13.9982   -1.8742    0.8092 H   0  0  0  0  0  0  0  0  0  0  0  0
   15.4186   -0.4999    1.9101 H   0  0  0  0  0  0  0  0  0  0  0  0
   16.3411   -1.7023    1.0502 H   0  0  0  0  0  0  0  0  0  0  0  0
   17.6957    0.1651    0.9612 H   0  0  0  0  0  0  0  0  0  0  0  0
   17.1657   -0.3453   -0.6279 H   0  0  0  0  0  0  0  0  0  0  0  0
   15.9858    1.7380   -1.0929 H   0  0  0  0  0  0  0  0  0  0  0  0
   17.6154    1.8940   -0.4989 H   0  0  0  0  0  0  0  0  0  0  0  0
   16.9021    2.9007    1.5748 H   0  0  0  0  0  0  0  0  0  0  0  0
   16.0517    3.6021    0.2094 H   0  0  0  0  0  0  0  0  0  0  0  0
   14.5570    1.5965    2.0008 H   0  0  0  0  0  0  0  0  0  0  0  0
   14.5681    3.3893    2.0952 H   0  0  0  0  0  0  0  0  0  0  0  0
   14.0228    2.5420    0.5869 H   0  0  0  0  0  0  0  0  0  0  0  0
  1  2  1  0
  1 20  1  0
  2  3  1  0
  3  4  1  0
  4  5  1  0
  5  6  1  0
  6  7  1  0
  7  8  1  0
  8  9  1  0
  9 10  1  0
 10 11  1  0
 11 12  1  0
 12 13  1  0
 13 14  1  0
 14 15  1  0
 15 16  1  0
 16 17  1  0
 17 18  1  0
 18 19  1  0
 20 21  1  0
 21 22  1  0
 22 23  1  0
 23 24  1  0
 24 25  1  0
 25 26  1  0
 26 27  1  0
 27 28  1  0
 28 29  1  0
 29 30  1  0
 30 31  1  0
 31 32  1  0
 32 33  1  0
 33 34  1  0
 34 35  1  0
 35 36  1  0
 36 37  1  0
 37 38  1  0
 38 39  1  0
 39 40  1  0
 40 41  1  0
 41 42  1  0
  1 43  1  0
  1 44  1  0
  2 45  1  0
  2 46  1  0
  3 47  1  0
  3 48  1  0
  4 49  1  0
  4 50  1  0
  5 51  1  0
  5 52  1  0
  6 53  1  0
  6 54  1  0
  7 55  1  0
  7 56  1  0
  8 57  1  0
  8 58  1  0
  9 59  1  0
  9 60  1  0
 10 61  1  0
 10 62  1  0
 11 63  1  0
 11 64  1  0
 12 65  1  0
 12 66  1  0
 13 67  1  0
 13 68  1  0
 14 69  1  0
 14 70  1  0
 15 71  1  0
 15 72  1  0
 16 73  1  0
 16 74  1  0
 17 75  1  0
 17 76  1  0
 18 77  1  0
 18 78  1  0
 19 79  1  0
 19 80  1  0
 19 81  1  0
 20 82  1  0
 20 83  1  0
 21 84  1  0
 21 85  1  0
 22 86  1  0
 22 87  1  0
 23 88  1  0
 23 89  1  0
 24 90  1  0
 24 91  1  0
 25 92  1  0
 25 93  1  0
 26 94  1  0
 26 95  1  0
 27 96  1  0
 27 97  1  0
 28 98  1  0
 28 99  1  0
 29100  1  0
 29101  1  0
 30102  1  0
 30103  1  0
 31104  1  0
 31105  1  0
 32106  1  0
 32107  1  0
 33108  1  0
 33109  1  0
 34110  1  0
 34111  1  0
 35112  1  0
 35113  1  0
 36114  1  0
 36115  1  0
 37116  1  0
 37117  1  0
 38118  1  0
 38119  1  0
 39120  1  0
 39121  1  0
 40122  1  0
 40123  1  0
 41124  1  0
 41125  1  0
 42126  1  0
 42127  1  0
 42128  1  0
M  END

