
     RDKit          3D

200199  0  0  0  0  0  0  0  0999 V2000
   13.9414    3.6533   -1.1289 C   0  0  0  0  0  0  0  0  0  0  0  0
   15.2193    3.4013   -1.9050 C   0  0  0  0  0  0  0  0  0  0  0  0
   14.0319    3.1673    0.2854 C   0  0  0  0  0  0  0  0  0  0  0  0
   14.2889    1.7201    0.4415 C   0  0  0  0  0  0  0  0  0  0  0  0
   14.3689    1.3041    1.8689 C   0  0  0  0  0  0  0  0  0  0  0  0
   13.2605    0.8359   -0.3540 C   0  0  0  0  0  0  0  0  0  0  0  0
   13.6746   -0.5704   -0.0826 C   0  0  0  0  0  0  0  0  0  0  0  0
   12.9614   -1.6951   -0.7190 C   0  0  0  0  0  0  0  0  0  0  0  0
   11.9026    1.2675    0.0560 C   0  0  0  0  0  0  0  0  0  0  0  0
   10.7560    0.5620   -0.6106 C   0  0  0  0  0  0  0  0  0  0  0  0
   10.7679    0.7363   -2.0929 C   0  0  0  0  0  0  0  0  0  0  0  0
    9.4423    1.0930   -0.0094 C   0  0  0  0  0  0  0  0  0  0  0  0
    9.4293    2.5657   -0.3009 C   0  0  0  0  0  0  0  0  0  0  0  0
    8.2838    0.3375   -0.6969 C   0  0  0  0  0  0  0  0  0  0  0  0
    8.6412   -1.1124   -0.3285 C   0  0  0  0  0  0  0  0  0  0  0  0
    8.7717   -1.3314    1.1332 C   0  0  0  0  0  0  0  0  0  0  0  0
    6.9767    0.7065   -0.1283 C   0  0  0  0  0  0  0  0  0  0  0  0
    5.6929    0.3292   -0.6022 C   0  0  0  0  0  0  0  0  0  0  0  0
    5.5847    0.8922   -2.1104 C   0  0  0  0  0  0  0  0  0  0  0  0
    4.7963   -0.8026   -0.6202 C   0  0  0  0  0  0  0  0  0  0  0  0
    5.1496   -2.0731   -1.2832 C   0  0  0  0  0  0  0  0  0  0  0  0
    3.9038   -0.9746    0.6284 C   0  0  0  0  0  0  0  0  0  0  0  0
    4.5770   -1.2484    1.8858 C   0  0  0  0  0  0  0  0  0  0  0  0
    5.4056   -2.4873    2.0039 C   0  0  0  0  0  0  0  0  0  0  0  0
    2.6501   -1.6678    0.3030 C   0  0  0  0  0  0  0  0  0  0  0  0
    1.6243   -1.9027    1.3345 C   0  0  0  0  0  0  0  0  0  0  0  0
    1.9582   -2.7689    2.5107 C   0  0  0  0  0  0  0  0  0  0  0  0
    0.2905   -2.3493    0.8091 C   0  0  0  0  0  0  0  0  0  0  0  0
    0.4729   -3.6317    0.0427 C   0  0  0  0  0  0  0  0  0  0  0  0
   -0.5079   -1.3904   -0.0133 C   0  0  0  0  0  0  0  0  0  0  0  0
   -1.7549   -2.1022   -0.3842 C   0  0  0  0  0  0  0  0  0  0  0  0
   -2.6138   -2.5864    0.7324 C   0  0  0  0  0  0  0  0  0  0  0  0
   -0.5737   -0.0461    0.5638 C   0  0  0  0  0  0  0  0  0  0  0  0
   -1.3248    1.0483   -0.0712 C   0  0  0  0  0  0  0  0  0  0  0  0
   -0.9335    1.3841   -1.4562 C   0  0  0  0  0  0  0  0  0  0  0  0
   -2.7958    1.1833    0.2952 C   0  0  0  0  0  0  0  0  0  0  0  0
   -2.8900    1.3842    1.8364 C   0  0  0  0  0  0  0  0  0  0  0  0
   -3.4593    2.3877   -0.2645 C   0  0  0  0  0  0  0  0  0  0  0  0
   -2.7877    3.6904    0.1397 C   0  0  0  0  0  0  0  0  0  0  0  0
   -3.4708    4.9114   -0.4305 C   0  0  0  0  0  0  0  0  0  0  0  0
   -4.2092    2.4039   -1.5072 C   0  0  0  0  0  0  0  0  0  0  0  0
   -5.4771    1.6484   -1.6808 C   0  0  0  0  0  0  0  0  0  0  0  0
   -6.5155    2.1766   -0.6620 C   0  0  0  0  0  0  0  0  0  0  0  0
   -5.4290    0.1578   -1.6265 C   0  0  0  0  0  0  0  0  0  0  0  0
   -4.4490   -0.2842   -2.7028 C   0  0  0  0  0  0  0  0  0  0  0  0
   -6.7787   -0.4517   -2.0455 C   0  0  0  0  0  0  0  0  0  0  0  0
   -7.1388   -0.0965   -3.4858 C   0  0  0  0  0  0  0  0  0  0  0  0
   -8.5002   -0.7425   -3.8161 C   0  0  0  0  0  0  0  0  0  0  0  0
   -6.7579   -1.9213   -1.9140 C   0  0  0  0  0  0  0  0  0  0  0  0
   -6.5361   -2.5634   -0.6050 C   0  0  0  0  0  0  0  0  0  0  0  0
   -6.4408   -4.0888   -1.0062 C   0  0  0  0  0  0  0  0  0  0  0  0
   -7.6198   -2.5381    0.4551 C   0  0  0  0  0  0  0  0  0  0  0  0
   -8.8365   -3.1937   -0.1036 C   0  0  0  0  0  0  0  0  0  0  0  0
   -7.6993   -1.4623    1.4198 C   0  0  0  0  0  0  0  0  0  0  0  0
   -6.3396   -1.3842    2.1799 C   0  0  0  0  0  0  0  0  0  0  0  0
   -6.3133   -0.3181    3.2284 C   0  0  0  0  0  0  0  0  0  0  0  0
   -8.5161   -0.3094    1.5558 C   0  0  0  0  0  0  0  0  0  0  0  0
   -9.8797    0.0048    1.8230 C   0  0  0  0  0  0  0  0  0  0  0  0
  -10.3494   -0.5177    3.2325 C   0  0  0  0  0  0  0  0  0  0  0  0
  -11.0852   -0.1733    0.9980 C   0  0  0  0  0  0  0  0  0  0  0  0
  -11.5213   -1.5562    0.6689 C   0  0  0  0  0  0  0  0  0  0  0  0
  -11.0923    0.6957   -0.2549 C   0  0  0  0  0  0  0  0  0  0  0  0
  -11.0053    2.1351    0.1144 C   0  0  0  0  0  0  0  0  0  0  0  0
  -11.0334    3.0314   -1.1281 C   0  0  0  0  0  0  0  0  0  0  0  0
  -12.4087    0.4848   -0.9672 C   0  0  0  0  0  0  0  0  0  0  0  0
  -13.6189    0.8369   -0.1692 C   0  0  0  0  0  0  0  0  0  0  0  0
   13.1227    3.2595   -1.7229 H   0  0  0  0  0  0  0  0  0  0  0  0
   13.7932    4.7720   -1.0837 H   0  0  0  0  0  0  0  0  0  0  0  0
   15.0428    3.8437   -2.9264 H   0  0  0  0  0  0  0  0  0  0  0  0
   16.0474    3.9251   -1.4261 H   0  0  0  0  0  0  0  0  0  0  0  0
   15.4392    2.3273   -1.9948 H   0  0  0  0  0  0  0  0  0  0  0  0
   13.1580    3.5215    0.8512 H   0  0  0  0  0  0  0  0  0  0  0  0
   14.9487    3.6895    0.7172 H   0  0  0  0  0  0  0  0  0  0  0  0
   15.2656    1.4799   -0.0373 H   0  0  0  0  0  0  0  0  0  0  0  0
   15.2876    0.6889    2.0604 H   0  0  0  0  0  0  0  0  0  0  0  0
   14.5416    2.2359    2.4854 H   0  0  0  0  0  0  0  0  0  0  0  0
   13.4752    0.8370    2.2836 H   0  0  0  0  0  0  0  0  0  0  0  0
   13.4672    1.0845   -1.4019 H   0  0  0  0  0  0  0  0  0  0  0  0
   13.7890   -0.7168    1.0332 H   0  0  0  0  0  0  0  0  0  0  0  0
   14.7615   -0.6338   -0.4219 H   0  0  0  0  0  0  0  0  0  0  0  0
   13.7270   -2.5174   -1.0301 H   0  0  0  0  0  0  0  0  0  0  0  0
   12.4947   -1.4615   -1.6833 H   0  0  0  0  0  0  0  0  0  0  0  0
   12.2421   -2.2458   -0.0734 H   0  0  0  0  0  0  0  0  0  0  0  0
   11.7752    2.3809    0.0173 H   0  0  0  0  0  0  0  0  0  0  0  0
   11.8082    0.9697    1.1582 H   0  0  0  0  0  0  0  0  0  0  0  0
   10.8663   -0.5030   -0.3674 H   0  0  0  0  0  0  0  0  0  0  0  0
   10.6242   -0.2669   -2.5990 H   0  0  0  0  0  0  0  0  0  0  0  0
   11.7671    1.0624   -2.4283 H   0  0  0  0  0  0  0  0  0  0  0  0
   10.0183    1.4358   -2.4998 H   0  0  0  0  0  0  0  0  0  0  0  0
    9.4617    0.9318    1.0555 H   0  0  0  0  0  0  0  0  0  0  0  0
    8.4951    3.0052   -0.6094 H   0  0  0  0  0  0  0  0  0  0  0  0
    9.7684    3.0970    0.6164 H   0  0  0  0  0  0  0  0  0  0  0  0
   10.1837    2.8658   -1.0816 H   0  0  0  0  0  0  0  0  0  0  0  0
    8.4063    0.4847   -1.7654 H   0  0  0  0  0  0  0  0  0  0  0  0
    9.4208   -1.5386   -0.9693 H   0  0  0  0  0  0  0  0  0  0  0  0
    7.7162   -1.6945   -0.6328 H   0  0  0  0  0  0  0  0  0  0  0  0
    8.8173   -2.4452    1.3123 H   0  0  0  0  0  0  0  0  0  0  0  0
    7.9420   -0.9022    1.6821 H   0  0  0  0  0  0  0  0  0  0  0  0
    9.6950   -0.9388    1.6085 H   0  0  0  0  0  0  0  0  0  0  0  0
    6.9896    0.6760    1.0113 H   0  0  0  0  0  0  0  0  0  0  0  0
    6.9913    1.8848   -0.2268 H   0  0  0  0  0  0  0  0  0  0  0  0
    4.9742    1.1804   -0.1431 H   0  0  0  0  0  0  0  0  0  0  0  0
    5.9416    1.9228   -2.0151 H   0  0  0  0  0  0  0  0  0  0  0  0
    6.2084    0.2886   -2.7498 H   0  0  0  0  0  0  0  0  0  0  0  0
    4.5125    0.8817   -2.3004 H   0  0  0  0  0  0  0  0  0  0  0  0
    3.9326   -0.4145   -1.3476 H   0  0  0  0  0  0  0  0  0  0  0  0
    4.2389   -2.4484   -1.8597 H   0  0  0  0  0  0  0  0  0  0  0  0
    5.8592   -1.8262   -2.1113 H   0  0  0  0  0  0  0  0  0  0  0  0
    5.4680   -2.9214   -0.7071 H   0  0  0  0  0  0  0  0  0  0  0  0
    3.5879    0.1754    0.7505 H   0  0  0  0  0  0  0  0  0  0  0  0
    3.8886   -1.2563    2.7840 H   0  0  0  0  0  0  0  0  0  0  0  0
    5.2971   -0.4140    2.2041 H   0  0  0  0  0  0  0  0  0  0  0  0
    5.8953   -2.5542    3.0257 H   0  0  0  0  0  0  0  0  0  0  0  0
    6.2601   -2.4072    1.3123 H   0  0  0  0  0  0  0  0  0  0  0  0
    4.9136   -3.4327    1.7402 H   0  0  0  0  0  0  0  0  0  0  0  0
    2.8983   -2.6029   -0.2824 H   0  0  0  0  0  0  0  0  0  0  0  0
    2.1377   -1.0374   -0.5013 H   0  0  0  0  0  0  0  0  0  0  0  0
    1.4801   -0.8628    1.8508 H   0  0  0  0  0  0  0  0  0  0  0  0
    1.9613   -2.2447    3.4957 H   0  0  0  0  0  0  0  0  0  0  0  0
    1.0363   -3.4567    2.6535 H   0  0  0  0  0  0  0  0  0  0  0  0
    2.7542   -3.4927    2.3707 H   0  0  0  0  0  0  0  0  0  0  0  0
   -0.3108   -2.5972    1.7360 H   0  0  0  0  0  0  0  0  0  0  0  0
    0.5695   -3.4239   -1.0405 H   0  0  0  0  0  0  0  0  0  0  0  0
   -0.3831   -4.3266    0.1625 H   0  0  0  0  0  0  0  0  0  0  0  0
    1.3533   -4.2183    0.4257 H   0  0  0  0  0  0  0  0  0  0  0  0
    0.1254   -1.3171   -0.9838 H   0  0  0  0  0  0  0  0  0  0  0  0
   -1.4243   -3.0195   -0.9674 H   0  0  0  0  0  0  0  0  0  0  0  0
   -2.4021   -1.5713   -1.1048 H   0  0  0  0  0  0  0  0  0  0  0  0
   -3.1263   -1.7625    1.2604 H   0  0  0  0  0  0  0  0  0  0  0  0
   -2.1320   -3.3018    1.4337 H   0  0  0  0  0  0  0  0  0  0  0  0
   -3.4468   -3.2167    0.2831 H   0  0  0  0  0  0  0  0  0  0  0  0
   -0.8392   -0.1449    1.6396 H   0  0  0  0  0  0  0  0  0  0  0  0
    0.5137    0.3050    0.6168 H   0  0  0  0  0  0  0  0  0  0  0  0
   -0.9260    1.9981    0.5137 H   0  0  0  0  0  0  0  0  0  0  0  0
    0.1697    1.5670   -1.5636 H   0  0  0  0  0  0  0  0  0  0  0  0
   -1.1157    0.5528   -2.2026 H   0  0  0  0  0  0  0  0  0  0  0  0
   -1.3873    2.2777   -1.9120 H   0  0  0  0  0  0  0  0  0  0  0  0
   -3.2852    0.2632    0.0787 H   0  0  0  0  0  0  0  0  0  0  0  0
   -3.9264    1.7386    1.9982 H   0  0  0  0  0  0  0  0  0  0  0  0
   -2.8045    0.4105    2.3404 H   0  0  0  0  0  0  0  0  0  0  0  0
   -2.2056    2.1512    2.1882 H   0  0  0  0  0  0  0  0  0  0  0  0
   -4.4148    2.4873    0.5111 H   0  0  0  0  0  0  0  0  0  0  0  0
   -2.8720    3.8378    1.2639 H   0  0  0  0  0  0  0  0  0  0  0  0
   -1.7276    3.7610   -0.1695 H   0  0  0  0  0  0  0  0  0  0  0  0
   -3.2254    5.0182   -1.5074 H   0  0  0  0  0  0  0  0  0  0  0  0
   -2.9991    5.7976    0.0578 H   0  0  0  0  0  0  0  0  0  0  0  0
   -4.5648    4.9177   -0.2421 H   0  0  0  0  0  0  0  0  0  0  0  0
   -4.5256    3.4995   -1.6671 H   0  0  0  0  0  0  0  0  0  0  0  0
   -3.6061    2.2329   -2.4411 H   0  0  0  0  0  0  0  0  0  0  0  0
   -5.8972    1.9504   -2.6595 H   0  0  0  0  0  0  0  0  0  0  0  0
   -6.4223    1.6444    0.2930 H   0  0  0  0  0  0  0  0  0  0  0  0
   -7.5312    2.0351   -1.0519 H   0  0  0  0  0  0  0  0  0  0  0  0
   -6.3470    3.2596   -0.5878 H   0  0  0  0  0  0  0  0  0  0  0  0
   -5.2563   -0.2136   -0.6413 H   0  0  0  0  0  0  0  0  0  0  0  0
   -4.2549   -1.3449   -2.7588 H   0  0  0  0  0  0  0  0  0  0  0  0
   -4.6851    0.1343   -3.6762 H   0  0  0  0  0  0  0  0  0  0  0  0
   -3.4339    0.1742   -2.4474 H   0  0  0  0  0  0  0  0  0  0  0  0
   -7.5189    0.0681   -1.4425 H   0  0  0  0  0  0  0  0  0  0  0  0
   -7.2847    0.9623   -3.6653 H   0  0  0  0  0  0  0  0  0  0  0  0
   -6.4362   -0.6153   -4.1836 H   0  0  0  0  0  0  0  0  0  0  0  0
   -9.1339   -0.0671   -4.4170 H   0  0  0  0  0  0  0  0  0  0  0  0
   -8.3740   -1.7411   -4.2706 H   0  0  0  0  0  0  0  0  0  0  0  0
   -9.0089   -0.8993   -2.8507 H   0  0  0  0  0  0  0  0  0  0  0  0
   -5.9221   -2.3022   -2.5850 H   0  0  0  0  0  0  0  0  0  0  0  0
   -7.6515   -2.3914   -2.4561 H   0  0  0  0  0  0  0  0  0  0  0  0
   -5.5509   -2.3420   -0.2362 H   0  0  0  0  0  0  0  0  0  0  0  0
   -5.3505   -4.2944   -1.2330 H   0  0  0  0  0  0  0  0  0  0  0  0
   -6.6589   -4.7194   -0.1300 H   0  0  0  0  0  0  0  0  0  0  0  0
   -6.9814   -4.2922   -1.9158 H   0  0  0  0  0  0  0  0  0  0  0  0
   -7.2199   -3.4590    1.1182 H   0  0  0  0  0  0  0  0  0  0  0  0
   -9.5066   -3.6180    0.6478 H   0  0  0  0  0  0  0  0  0  0  0  0
   -9.3101   -2.6312   -0.9298 H   0  0  0  0  0  0  0  0  0  0  0  0
   -8.4658   -4.1282   -0.6488 H   0  0  0  0  0  0  0  0  0  0  0  0
   -8.2265   -2.1021    2.3996 H   0  0  0  0  0  0  0  0  0  0  0  0
   -6.1337   -2.3483    2.7041 H   0  0  0  0  0  0  0  0  0  0  0  0
   -5.5180   -1.1237    1.4818 H   0  0  0  0  0  0  0  0  0  0  0  0
   -7.2085   -0.2861    3.8786 H   0  0  0  0  0  0  0  0  0  0  0  0
   -6.0909    0.6966    2.8849 H   0  0  0  0  0  0  0  0  0  0  0  0
   -5.4063   -0.5791    3.8737 H   0  0  0  0  0  0  0  0  0  0  0  0
   -8.3393    0.3022    0.5458 H   0  0  0  0  0  0  0  0  0  0  0  0
   -7.8699    0.4570    2.1964 H   0  0  0  0  0  0  0  0  0  0  0  0
   -9.9098    1.1333    2.0794 H   0  0  0  0  0  0  0  0  0  0  0  0
  -11.3221   -0.0103    3.3573 H   0  0  0  0  0  0  0  0  0  0  0  0
   -9.6928   -0.1141    4.0193 H   0  0  0  0  0  0  0  0  0  0  0  0
  -10.5293   -1.5818    3.2269 H   0  0  0  0  0  0  0  0  0  0  0  0
  -11.9412    0.2792    1.6141 H   0  0  0  0  0  0  0  0  0  0  0  0
  -11.1807   -2.2946    1.4264 H   0  0  0  0  0  0  0  0  0  0  0  0
  -11.3521   -1.8283   -0.3672 H   0  0  0  0  0  0  0  0  0  0  0  0
  -12.6604   -1.6229    0.7821 H   0  0  0  0  0  0  0  0  0  0  0  0
  -10.3004    0.3823   -0.9651 H   0  0  0  0  0  0  0  0  0  0  0  0
  -11.7919    2.4695    0.7752 H   0  0  0  0  0  0  0  0  0  0  0  0
  -10.0293    2.4037    0.6205 H   0  0  0  0  0  0  0  0  0  0  0  0
  -10.3756    2.6446   -1.9192 H   0  0  0  0  0  0  0  0  0  0  0  0
  -12.0487    3.1206   -1.5313 H   0  0  0  0  0  0  0  0  0  0  0  0
  -10.7301    4.0438   -0.7853 H   0  0  0  0  0  0  0  0  0  0  0  0
  -12.4336    1.1574   -1.8895 H   0  0  0  0  0  0  0  0  0  0  0  0
  -12.5050   -0.5518   -1.3293 H   0  0  0  0  0  0  0  0  0  0  0  0
  -13.4465    1.3440    0.7769 H   0  0  0  0  0  0  0  0  0  0  0  0
  -14.3214    1.5081   -0.7468 H   0  0  0  0  0  0  0  0  0  0  0  0
  -14.2714   -0.0504    0.0665 H   0  0  0  0  0  0  0  0  0  0  0  0
  1  2  1  0
  1  3  1  0
  3  4  1  0
  4  5  1  0
  4  6  1  0
  6  7  1  0
  6  9  1  0
  7  8  1  0
  9 10  1  0
 10 11  1  0
 10 12  1  0
 12 13  1  0
 12 14  1  0
 14 15  1  0
 14 17  1  0
 15 16  1  0
 17 18  1  0
 18 19  1  0
 18 20  1  0
 20 21  1  0
 20 22  1  0
 22 23  1  0
 22 25  1  0
 23 24  1  0
 25 26  1  0
 26 27  1  0
 26 28  1  0
 28 29  1  0
 28 30  1  0
 30 31  1  0
 30 33  1  0
 31 32  1  0
 33 34  1  0
 34 35  1  0
 34 36  1  0
 36 37  1  0
 36 38  1  0
 38 39  1  0
 38 41  1  0
 39 40  1  0
 41 42  1  0
 42 43  1  0
 42 44  1  0
 44 45  1  0
 44 46  1  0
 46 47  1  0
 46 49  1  0
 47 48  1  0
 49 50  1  0
 50 51  1  0
 50 52  1  0
 52 53  1  0
 52 54  1  0
 54 55  1  0
 54 57  1  0
 55 56  1  0
 57 58  1  0
 58 59  1  0
 58 60  1  0
 60 61  1  0
 60 62  1  0
 62 63  1  0
 62 65  1  0
 63 64  1  0
 65 66  1  0
  1 67  1  0
  1 68  1  0
  2 69  1  0
  2 70  1  0
  2 71  1  0
  3 72  1  0
  3 73  1  0
  4 74  1  0
  5 75  1  0
  5 76  1  0
  5 77  1  0
  6 78  1  0
  7 79  1  0
  7 80  1  0
  8 81  1  0
  8 82  1  0
  8 83  1  0
  9 84  1  0
  9 85  1  0
 10 86  1  0
 11 87  1  0
 11 88  1  0
 11 89  1  0
 12 90  1  0
 13 91  1  0
 13 92  1  0
 13 93  1  0
 14 94  1  0
 15 95  1  0
 15 96  1  0
 16 97  1  0
 16 98  1  0
 16 99  1  0
 17100  1  0
 17101  1  0
 18102  1  0
 19103  1  0
 19104  1  0
 19105  1  0
 20106  1  0
 21107  1  0
 21108  1  0
 21109  1  0
 22110  1  0
 23111  1  0
 23112  1  0
 24113  1  0
 24114  1  0
 24115  1  0
 25116  1  0
 25117  1  0
 26118  1  0
 27119  1  0
 27120  1  0
 27121  1  0
 28122  1  0
 29123  1  0
 29124  1  0
 29125  1  0
 30126  1  0
 31127  1  0
 31128  1  0
 32129  1  0
 32130  1  0
 32131  1  0
 33132  1  0
 33133  1  0
 34134  1  0
 35135  1  0
 35136  1  0
 35137  1  0
 36138  1  0
 37139  1  0
 37140  1  0
 37141  1  0
 38142  1  0
 39143  1  0
 39144  1  0
 40145  1  0
 40146  1  0
 40147  1  0
 41148  1  0
 41149  1  0
 42150  1  0
 43151  1  0
 43152  1  0
 43153  1  0
 44154  1  0
 45155  1  0
 45156  1  0
 45157  1  0
 46158  1  0
 47159  1  0
 47160  1  0
 48161  1  0
 48162  1  0
 48163  1  0
 49164  1  0
 49165  1  0
 50166  1  0
 51167  1  0
 51168  1  0
 51169  1  0
 52170  1  0
 53171  1  0
 53172  1  0
 53173  1  0
 54174  1  0
 55175  1  0
 55176  1  0
 56177  1  0
 56178  1  0
 56179  1  0
 57180  1  0
 57181  1  0
 58182  1  0
 59183  1  0
 59184  1  0
 59185  1  0
 60186  1  0
 61187  1  0
 61188  1  0
 61189  1  0
 62190  1  0
 63191  1  0
 63192  1  0
 64193  1  0
 64194  1  0
 64195  1  0
 65196  1  0
 65197  1  0
 66198  1  0
 66199  1  0
 66200  1  0
M  END

