
     RDKit          3D

128127  0  0  0  0  0  0  0  0999 V2000
  -10.0190    1.6936   -1.9643 C   0  0  0  0  0  0  0  0  0  0  0  0
  -11.1264    0.7342   -2.2015 C   0  0  0  0  0  0  0  0  0  0  0  0
   -8.6357    1.1062   -1.8590 C   0  0  0  0  0  0  0  0  0  0  0  0
   -8.3961    0.1493   -0.7737 C   0  0  0  0  0  0  0  0  0  0  0  0
   -9.1712   -1.1089   -0.7407 C   0  0  0  0  0  0  0  0  0  0  0  0
   -6.9095   -0.0288   -0.3730 C   0  0  0  0  0  0  0  0  0  0  0  0
   -6.1497   -0.4874   -1.6340 C   0  0  0  0  0  0  0  0  0  0  0  0
   -6.6168   -1.7705   -2.1984 C   0  0  0  0  0  0  0  0  0  0  0  0
   -6.3763    1.1987    0.1873 C   0  0  0  0  0  0  0  0  0  0  0  0
   -5.0471    1.4219    0.7166 C   0  0  0  0  0  0  0  0  0  0  0  0
   -5.0767    2.9548    1.1225 C   0  0  0  0  0  0  0  0  0  0  0  0
   -4.5168    0.7787    1.9354 C   0  0  0  0  0  0  0  0  0  0  0  0
   -5.3904    1.0928    3.1737 C   0  0  0  0  0  0  0  0  0  0  0  0
   -3.8662   -0.5192    1.9622 C   0  0  0  0  0  0  0  0  0  0  0  0
   -4.4829   -1.7820    1.5546 C   0  0  0  0  0  0  0  0  0  0  0  0
   -5.7052   -2.1111    2.4366 C   0  0  0  0  0  0  0  0  0  0  0  0
   -2.3737   -0.5712    1.6305 C   0  0  0  0  0  0  0  0  0  0  0  0
   -1.5036    0.1662    2.5713 C   0  0  0  0  0  0  0  0  0  0  0  0
   -1.7113   -0.4749    3.9547 C   0  0  0  0  0  0  0  0  0  0  0  0
   -0.0651    0.0473    2.2743 C   0  0  0  0  0  0  0  0  0  0  0  0
    0.3015   -1.4077    2.3112 C   0  0  0  0  0  0  0  0  0  0  0  0
    0.3438    0.5826    0.8673 C   0  0  0  0  0  0  0  0  0  0  0  0
   -0.0706    2.0194    0.8214 C   0  0  0  0  0  0  0  0  0  0  0  0
    0.1598    2.6981   -0.4741 C   0  0  0  0  0  0  0  0  0  0  0  0
    1.8310    0.3237    0.9040 C   0  0  0  0  0  0  0  0  0  0  0  0
    2.6789    0.6534   -0.2589 C   0  0  0  0  0  0  0  0  0  0  0  0
    2.2941   -0.1050   -1.5185 C   0  0  0  0  0  0  0  0  0  0  0  0
    4.1066    0.8492   -0.0332 C   0  0  0  0  0  0  0  0  0  0  0  0
    4.2252    2.0008    1.0069 C   0  0  0  0  0  0  0  0  0  0  0  0
    5.1788   -0.1385    0.0800 C   0  0  0  0  0  0  0  0  0  0  0  0
    5.1892   -1.1795    1.1033 C   0  0  0  0  0  0  0  0  0  0  0  0
    4.1825   -2.2342    1.1945 C   0  0  0  0  0  0  0  0  0  0  0  0
    5.7491   -0.4538   -1.2752 C   0  0  0  0  0  0  0  0  0  0  0  0
    6.8021   -1.4027   -1.5184 C   0  0  0  0  0  0  0  0  0  0  0  0
    6.3493   -2.8595   -1.1530 C   0  0  0  0  0  0  0  0  0  0  0  0
    8.2256   -1.2450   -1.1867 C   0  0  0  0  0  0  0  0  0  0  0  0
    8.9113   -2.5494   -1.6397 C   0  0  0  0  0  0  0  0  0  0  0  0
    8.8963   -0.0169   -1.5979 C   0  0  0  0  0  0  0  0  0  0  0  0
    8.4398    1.2670   -0.9787 C   0  0  0  0  0  0  0  0  0  0  0  0
    9.2381    2.4611   -1.5002 C   0  0  0  0  0  0  0  0  0  0  0  0
   10.3952    0.0141   -1.6359 C   0  0  0  0  0  0  0  0  0  0  0  0
   11.0824   -0.9022   -2.5807 C   0  0  0  0  0  0  0  0  0  0  0  0
  -10.2778    2.2993   -1.0613 H   0  0  0  0  0  0  0  0  0  0  0  0
   -9.9889    2.4452   -2.7984 H   0  0  0  0  0  0  0  0  0  0  0  0
  -10.7834   -0.2178   -2.6306 H   0  0  0  0  0  0  0  0  0  0  0  0
  -11.7865    0.5784   -1.2945 H   0  0  0  0  0  0  0  0  0  0  0  0
  -11.8498    1.2445   -2.9211 H   0  0  0  0  0  0  0  0  0  0  0  0
   -7.9425    1.9571   -1.9269 H   0  0  0  0  0  0  0  0  0  0  0  0
   -8.5140    0.5487   -2.8590 H   0  0  0  0  0  0  0  0  0  0  0  0
   -8.7725    0.7151    0.1783 H   0  0  0  0  0  0  0  0  0  0  0  0
  -10.2247   -0.9548   -0.4249 H   0  0  0  0  0  0  0  0  0  0  0  0
   -8.7440   -1.7600    0.0661 H   0  0  0  0  0  0  0  0  0  0  0  0
   -9.2244   -1.6754   -1.7055 H   0  0  0  0  0  0  0  0  0  0  0  0
   -6.9215   -0.9313    0.2478 H   0  0  0  0  0  0  0  0  0  0  0  0
   -5.0979   -0.5835   -1.3232 H   0  0  0  0  0  0  0  0  0  0  0  0
   -6.1372    0.3490   -2.3787 H   0  0  0  0  0  0  0  0  0  0  0  0
   -7.2752   -1.6656   -3.0884 H   0  0  0  0  0  0  0  0  0  0  0  0
   -5.7101   -2.3105   -2.6216 H   0  0  0  0  0  0  0  0  0  0  0  0
   -6.9894   -2.4285   -1.4186 H   0  0  0  0  0  0  0  0  0  0  0  0
   -6.5073    2.0099   -0.6210 H   0  0  0  0  0  0  0  0  0  0  0  0
   -7.1616    1.5891    0.9293 H   0  0  0  0  0  0  0  0  0  0  0  0
   -4.2309    1.4378   -0.0379 H   0  0  0  0  0  0  0  0  0  0  0  0
   -4.2392    3.1770    1.7842 H   0  0  0  0  0  0  0  0  0  0  0  0
   -6.0541    3.1665    1.6015 H   0  0  0  0  0  0  0  0  0  0  0  0
   -5.0015    3.5541    0.2188 H   0  0  0  0  0  0  0  0  0  0  0  0
   -3.6193    1.4953    2.1713 H   0  0  0  0  0  0  0  0  0  0  0  0
   -5.1866    0.3721    3.9942 H   0  0  0  0  0  0  0  0  0  0  0  0
   -5.1883    2.0934    3.5975 H   0  0  0  0  0  0  0  0  0  0  0  0
   -6.4645    1.1276    2.8834 H   0  0  0  0  0  0  0  0  0  0  0  0
   -3.7659   -0.6919    3.1552 H   0  0  0  0  0  0  0  0  0  0  0  0
   -3.7964   -2.6681    1.7641 H   0  0  0  0  0  0  0  0  0  0  0  0
   -4.8037   -1.9410    0.5395 H   0  0  0  0  0  0  0  0  0  0  0  0
   -6.3194   -1.2164    2.5566 H   0  0  0  0  0  0  0  0  0  0  0  0
   -6.3200   -2.9070    1.9600 H   0  0  0  0  0  0  0  0  0  0  0  0
   -5.4022   -2.4666    3.4196 H   0  0  0  0  0  0  0  0  0  0  0  0
   -2.2960   -0.0499    0.6282 H   0  0  0  0  0  0  0  0  0  0  0  0
   -2.0405   -1.5987    1.4385 H   0  0  0  0  0  0  0  0  0  0  0  0
   -1.8479    1.2093    2.7241 H   0  0  0  0  0  0  0  0  0  0  0  0
   -0.7511   -0.4524    4.5310 H   0  0  0  0  0  0  0  0  0  0  0  0
   -2.0908   -1.4923    3.9070 H   0  0  0  0  0  0  0  0  0  0  0  0
   -2.4272    0.1050    4.5756 H   0  0  0  0  0  0  0  0  0  0  0  0
    0.5400    0.5666    3.0507 H   0  0  0  0  0  0  0  0  0  0  0  0
    0.2987   -1.8554    1.2974 H   0  0  0  0  0  0  0  0  0  0  0  0
   -0.4570   -2.0093    2.8782 H   0  0  0  0  0  0  0  0  0  0  0  0
    1.2552   -1.6279    2.8374 H   0  0  0  0  0  0  0  0  0  0  0  0
   -0.1246   -0.0719    0.1476 H   0  0  0  0  0  0  0  0  0  0  0  0
    0.4043    2.5964    1.6883 H   0  0  0  0  0  0  0  0  0  0  0  0
   -1.1618    2.1411    1.0652 H   0  0  0  0  0  0  0  0  0  0  0  0
   -0.7865    3.3241   -0.7621 H   0  0  0  0  0  0  0  0  0  0  0  0
    0.9536    3.4803   -0.4743 H   0  0  0  0  0  0  0  0  0  0  0  0
    0.2474    2.0549   -1.3659 H   0  0  0  0  0  0  0  0  0  0  0  0
    1.9121   -0.7476    1.2078 H   0  0  0  0  0  0  0  0  0  0  0  0
    2.1866    0.9797    1.7684 H   0  0  0  0  0  0  0  0  0  0  0  0
    2.3352    1.7058   -0.5487 H   0  0  0  0  0  0  0  0  0  0  0  0
    2.7239    0.4276   -2.3690 H   0  0  0  0  0  0  0  0  0  0  0  0
    1.1882   -0.0703   -1.6272 H   0  0  0  0  0  0  0  0  0  0  0  0
    2.5199   -1.1865   -1.4740 H   0  0  0  0  0  0  0  0  0  0  0  0
    4.4457    1.4679   -0.9868 H   0  0  0  0  0  0  0  0  0  0  0  0
    3.5206    2.7963    0.7494 H   0  0  0  0  0  0  0  0  0  0  0  0
    4.1097    1.5948    2.0210 H   0  0  0  0  0  0  0  0  0  0  0  0
    5.2524    2.4289    0.9452 H   0  0  0  0  0  0  0  0  0  0  0  0
    6.0348    0.5656    0.4828 H   0  0  0  0  0  0  0  0  0  0  0  0
    5.0660   -0.5820    2.1162 H   0  0  0  0  0  0  0  0  0  0  0  0
    6.2008   -1.5996    1.2939 H   0  0  0  0  0  0  0  0  0  0  0  0
    3.4737   -2.3381    0.3571 H   0  0  0  0  0  0  0  0  0  0  0  0
    3.5542   -2.2033    2.1222 H   0  0  0  0  0  0  0  0  0  0  0  0
    4.6492   -3.2721    1.2670 H   0  0  0  0  0  0  0  0  0  0  0  0
    5.8151    0.4594   -1.8639 H   0  0  0  0  0  0  0  0  0  0  0  0
    4.8364   -0.9562   -1.8776 H   0  0  0  0  0  0  0  0  0  0  0  0
    6.8260   -1.4973   -2.6772 H   0  0  0  0  0  0  0  0  0  0  0  0
    6.7372   -3.5270   -1.9811 H   0  0  0  0  0  0  0  0  0  0  0  0
    6.6618   -3.1871   -0.1930 H   0  0  0  0  0  0  0  0  0  0  0  0
    5.2448   -2.8592   -1.3609 H   0  0  0  0  0  0  0  0  0  0  0  0
    8.3911   -1.3445   -0.0450 H   0  0  0  0  0  0  0  0  0  0  0  0
    8.6942   -2.8140   -2.6673 H   0  0  0  0  0  0  0  0  0  0  0  0
    9.9554   -2.6124   -1.3028 H   0  0  0  0  0  0  0  0  0  0  0  0
    8.4201   -3.3520   -0.9862 H   0  0  0  0  0  0  0  0  0  0  0  0
    8.6391    0.1679   -2.7406 H   0  0  0  0  0  0  0  0  0  0  0  0
    7.4029    1.4873   -1.1078 H   0  0  0  0  0  0  0  0  0  0  0  0
    8.6336    1.1821    0.1428 H   0  0  0  0  0  0  0  0  0  0  0  0
    8.5538    3.3526   -1.4051 H   0  0  0  0  0  0  0  0  0  0  0  0
    9.4625    2.3896   -2.5645 H   0  0  0  0  0  0  0  0  0  0  0  0
   10.1207    2.6004   -0.8850 H   0  0  0  0  0  0  0  0  0  0  0  0
   10.8297   -0.1154   -0.5975 H   0  0  0  0  0  0  0  0  0  0  0  0
   10.7076    1.0420   -1.9055 H   0  0  0  0  0  0  0  0  0  0  0  0
   10.4791   -1.4661   -3.2798 H   0  0  0  0  0  0  0  0  0  0  0  0
   11.7921   -0.3099   -3.2767 H   0  0  0  0  0  0  0  0  0  0  0  0
   11.8385   -1.5337   -2.0282 H   0  0  0  0  0  0  0  0  0  0  0  0
  1  2  1  0
  1  3  1  0
  3  4  1  0
  4  5  1  0
  4  6  1  0
  6  7  1  0
  6  9  1  0
  7  8  1  0
  9 10  1  0
 10 11  1  0
 10 12  1  0
 12 13  1  0
 12 14  1  0
 14 15  1  0
 14 17  1  0
 15 16  1  0
 17 18  1  0
 18 19  1  0
 18 20  1  0
 20 21  1  0
 20 22  1  0
 22 23  1  0
 22 25  1  0
 23 24  1  0
 25 26  1  0
 26 27  1  0
 26 28  1  0
 28 29  1  0
 28 30  1  0
 30 31  1  0
 30 33  1  0
 31 32  1  0
 33 34  1  0
 34 35  1  0
 34 36  1  0
 36 37  1  0
 36 38  1  0
 38 39  1  0
 38 41  1  0
 39 40  1  0
 41 42  1  0
  1 43  1  0
  1 44  1  0
  2 45  1  0
  2 46  1  0
  2 47  1  0
  3 48  1  0
  3 49  1  0
  4 50  1  0
  5 51  1  0
  5 52  1  0
  5 53  1  0
  6 54  1  0
  7 55  1  0
  7 56  1  0
  8 57  1  0
  8 58  1  0
  8 59  1  0
  9 60  1  0
  9 61  1  0
 10 62  1  0
 11 63  1  0
 11 64  1  0
 11 65  1  0
 12 66  1  0
 13 67  1  0
 13 68  1  0
 13 69  1  0
 14 70  1  0
 15 71  1  0
 15 72  1  0
 16 73  1  0
 16 74  1  0
 16 75  1  0
 17 76  1  0
 17 77  1  0
 18 78  1  0
 19 79  1  0
 19 80  1  0
 19 81  1  0
 20 82  1  0
 21 83  1  0
 21 84  1  0
 21 85  1  0
 22 86  1  0
 23 87  1  0
 23 88  1  0
 24 89  1  0
 24 90  1  0
 24 91  1  0
 25 92  1  0
 25 93  1  0
 26 94  1  0
 27 95  1  0
 27 96  1  0
 27 97  1  0
 28 98  1  0
 29 99  1  0
 29100  1  0
 29101  1  0
 30102  1  0
 31103  1  0
 31104  1  0
 32105  1  0
 32106  1  0
 32107  1  0
 33108  1  0
 33109  1  0
 34110  1  0
 35111  1  0
 35112  1  0
 35113  1  0
 36114  1  0
 37115  1  0
 37116  1  0
 37117  1  0
 38118  1  0
 39119  1  0
 39120  1  0
 40121  1  0
 40122  1  0
 40123  1  0
 41124  1  0
 41125  1  0
 42126  1  0
 42127  1  0
 42128  1  0
M  END

