
     RDKit          3D

 92 91  0  0  0  0  0  0  0  0999 V2000
    5.5443    1.3299    1.5089 C   0  0  0  0  0  0  0  0  0  0  0  0
    5.2647    2.4736    2.5025 C   0  0  0  0  0  0  0  0  0  0  0  0
    4.8458    1.5797    0.2090 C   0  0  0  0  0  0  0  0  0  0  0  0
    4.9937    0.5839   -0.8623 C   0  0  0  0  0  0  0  0  0  0  0  0
    6.5072    0.4375   -1.2026 C   0  0  0  0  0  0  0  0  0  0  0  0
    4.3172   -0.6922   -0.8317 C   0  0  0  0  0  0  0  0  0  0  0  0
    4.6247   -1.6465    0.3181 C   0  0  0  0  0  0  0  0  0  0  0  0
    6.0331   -2.0708    0.4405 C   0  0  0  0  0  0  0  0  0  0  0  0
    2.8131   -0.7276   -0.9976 C   0  0  0  0  0  0  0  0  0  0  0  0
    2.1833   -0.2327   -2.2382 C   0  0  0  0  0  0  0  0  0  0  0  0
    2.3758    1.2109   -2.6050 C   0  0  0  0  0  0  0  0  0  0  0  0
    0.8644   -0.7926   -2.5866 C   0  0  0  0  0  0  0  0  0  0  0  0
    0.4987   -0.1276   -3.9424 C   0  0  0  0  0  0  0  0  0  0  0  0
   -0.3018   -1.1570   -1.8202 C   0  0  0  0  0  0  0  0  0  0  0  0
   -0.3123   -2.2090   -0.7647 C   0  0  0  0  0  0  0  0  0  0  0  0
    0.3995   -2.2666    0.4686 C   0  0  0  0  0  0  0  0  0  0  0  0
   -1.4450   -0.1909   -1.5960 C   0  0  0  0  0  0  0  0  0  0  0  0
   -1.4401    1.0674   -0.8908 C   0  0  0  0  0  0  0  0  0  0  0  0
   -0.5791    2.2192   -1.3026 C   0  0  0  0  0  0  0  0  0  0  0  0
   -1.5597    0.9841    0.6298 C   0  0  0  0  0  0  0  0  0  0  0  0
   -1.5190    2.2616    1.3429 C   0  0  0  0  0  0  0  0  0  0  0  0
   -2.8718    0.1657    1.0412 C   0  0  0  0  0  0  0  0  0  0  0  0
   -2.6203    0.2104    2.5655 C   0  0  0  0  0  0  0  0  0  0  0  0
   -3.4824   -0.4655    3.5057 C   0  0  0  0  0  0  0  0  0  0  0  0
   -4.0394    0.9432    0.6586 C   0  0  0  0  0  0  0  0  0  0  0  0
   -5.4362    0.5896    0.5592 C   0  0  0  0  0  0  0  0  0  0  0  0
   -5.6091   -0.4906   -0.5760 C   0  0  0  0  0  0  0  0  0  0  0  0
   -6.3028    0.0633    1.6266 C   0  0  0  0  0  0  0  0  0  0  0  0
   -7.7767   -0.0173    1.0377 C   0  0  0  0  0  0  0  0  0  0  0  0
   -6.0783   -1.4385    1.9171 C   0  0  0  0  0  0  0  0  0  0  0  0
    6.6546    1.2475    1.3574 H   0  0  0  0  0  0  0  0  0  0  0  0
    5.2666    0.4086    2.0394 H   0  0  0  0  0  0  0  0  0  0  0  0
    6.1525    2.5861    3.1234 H   0  0  0  0  0  0  0  0  0  0  0  0
    4.4235    2.1441    3.1446 H   0  0  0  0  0  0  0  0  0  0  0  0
    4.9472    3.3863    1.9569 H   0  0  0  0  0  0  0  0  0  0  0  0
    5.2458    2.5827   -0.1516 H   0  0  0  0  0  0  0  0  0  0  0  0
    3.7919    1.8343    0.4636 H   0  0  0  0  0  0  0  0  0  0  0  0
    4.6603    1.1125   -1.8179 H   0  0  0  0  0  0  0  0  0  0  0  0
    6.8489    1.4535   -1.5784 H   0  0  0  0  0  0  0  0  0  0  0  0
    6.6675   -0.2353   -2.0435 H   0  0  0  0  0  0  0  0  0  0  0  0
    7.1051    0.2620   -0.3122 H   0  0  0  0  0  0  0  0  0  0  0  0
    4.6850   -1.2924   -1.7372 H   0  0  0  0  0  0  0  0  0  0  0  0
    4.0593   -2.5888   -0.0244 H   0  0  0  0  0  0  0  0  0  0  0  0
    4.0888   -1.4043    1.2485 H   0  0  0  0  0  0  0  0  0  0  0  0
    6.6287   -1.4901    1.1805 H   0  0  0  0  0  0  0  0  0  0  0  0
    6.0474   -3.1714    0.7302 H   0  0  0  0  0  0  0  0  0  0  0  0
    6.6026   -2.0562   -0.5078 H   0  0  0  0  0  0  0  0  0  0  0  0
    2.5919   -1.8594   -1.0257 H   0  0  0  0  0  0  0  0  0  0  0  0
    2.4245   -0.2600   -0.0711 H   0  0  0  0  0  0  0  0  0  0  0  0
    2.9084   -0.7064   -3.0311 H   0  0  0  0  0  0  0  0  0  0  0  0
    2.5377    1.9003   -1.7645 H   0  0  0  0  0  0  0  0  0  0  0  0
    3.1354    1.4300   -3.3770 H   0  0  0  0  0  0  0  0  0  0  0  0
    1.4170    1.4961   -3.1596 H   0  0  0  0  0  0  0  0  0  0  0  0
    1.2730   -1.8187   -3.0693 H   0  0  0  0  0  0  0  0  0  0  0  0
    1.4030    0.0895   -4.5360 H   0  0  0  0  0  0  0  0  0  0  0  0
   -0.0069   -0.9138   -4.6062 H   0  0  0  0  0  0  0  0  0  0  0  0
   -0.2364    0.6427   -3.8835 H   0  0  0  0  0  0  0  0  0  0  0  0
   -0.8612   -1.7998   -2.6341 H   0  0  0  0  0  0  0  0  0  0  0  0
   -0.1325   -3.2380   -1.2734 H   0  0  0  0  0  0  0  0  0  0  0  0
   -1.4262   -2.3533   -0.5413 H   0  0  0  0  0  0  0  0  0  0  0  0
   -0.2620   -2.7495    1.2843 H   0  0  0  0  0  0  0  0  0  0  0  0
    1.2278   -3.0533    0.4712 H   0  0  0  0  0  0  0  0  0  0  0  0
    0.7707   -1.3995    0.9958 H   0  0  0  0  0  0  0  0  0  0  0  0
   -2.2702   -0.7962   -1.1579 H   0  0  0  0  0  0  0  0  0  0  0  0
   -1.9360   -0.0413   -2.6535 H   0  0  0  0  0  0  0  0  0  0  0  0
   -2.4618    1.5142   -1.1829 H   0  0  0  0  0  0  0  0  0  0  0  0
   -0.5690    2.3899   -2.3966 H   0  0  0  0  0  0  0  0  0  0  0  0
    0.4043    2.2606   -0.8072 H   0  0  0  0  0  0  0  0  0  0  0  0
   -1.0883    3.1718   -0.9437 H   0  0  0  0  0  0  0  0  0  0  0  0
   -0.7816    0.3169    1.0505 H   0  0  0  0  0  0  0  0  0  0  0  0
   -0.6938    2.9092    0.9157 H   0  0  0  0  0  0  0  0  0  0  0  0
   -1.0844    2.0650    2.3777 H   0  0  0  0  0  0  0  0  0  0  0  0
   -2.4317    2.8256    1.4977 H   0  0  0  0  0  0  0  0  0  0  0  0
   -2.7072   -0.8241    0.7071 H   0  0  0  0  0  0  0  0  0  0  0  0
   -2.7542    1.3376    2.7782 H   0  0  0  0  0  0  0  0  0  0  0  0
   -1.5407   -0.0681    2.7101 H   0  0  0  0  0  0  0  0  0  0  0  0
   -4.4382    0.0218    3.7518 H   0  0  0  0  0  0  0  0  0  0  0  0
   -2.9355   -0.4087    4.5340 H   0  0  0  0  0  0  0  0  0  0  0  0
   -3.6375   -1.5583    3.3407 H   0  0  0  0  0  0  0  0  0  0  0  0
   -3.7933    1.7570   -0.1376 H   0  0  0  0  0  0  0  0  0  0  0  0
   -4.0826    1.7565    1.5655 H   0  0  0  0  0  0  0  0  0  0  0  0
   -5.9916    1.4890    0.1229 H   0  0  0  0  0  0  0  0  0  0  0  0
   -6.4661   -0.1276   -1.1709 H   0  0  0  0  0  0  0  0  0  0  0  0
   -5.9012   -1.4560   -0.1683 H   0  0  0  0  0  0  0  0  0  0  0  0
   -4.7273   -0.4996   -1.2230 H   0  0  0  0  0  0  0  0  0  0  0  0
   -6.3635    0.5992    2.5509 H   0  0  0  0  0  0  0  0  0  0  0  0
   -8.0273    0.9607    0.6306 H   0  0  0  0  0  0  0  0  0  0  0  0
   -8.3815   -0.3455    1.9060 H   0  0  0  0  0  0  0  0  0  0  0  0
   -7.7677   -0.8471    0.3089 H   0  0  0  0  0  0  0  0  0  0  0  0
   -6.9119   -2.0442    1.5425 H   0  0  0  0  0  0  0  0  0  0  0  0
   -5.0965   -1.7864    1.5657 H   0  0  0  0  0  0  0  0  0  0  0  0
   -6.0949   -1.5379    3.0198 H   0  0  0  0  0  0  0  0  0  0  0  0
  1  2  1  0
  1  3  1  0
  3  4  1  0
  4  5  1  0
  4  6  1  0
  6  7  1  0
  6  9  1  0
  7  8  1  0
  9 10  1  0
 10 11  1  0
 10 12  1  0
 12 13  1  0
 12 14  1  0
 14 15  1  0
 14 17  1  0
 15 16  1  0
 17 18  1  0
 18 19  1  0
 18 20  1  0
 20 21  1  0
 20 22  1  0
 22 23  1  0
 22 25  1  0
 23 24  1  0
 25 26  1  0
 26 27  1  0
 26 28  1  0
 28 29  1  0
 28 30  1  0
  1 31  1  0
  1 32  1  0
  2 33  1  0
  2 34  1  0
  2 35  1  0
  3 36  1  0
  3 37  1  0
  4 38  1  0
  5 39  1  0
  5 40  1  0
  5 41  1  0
  6 42  1  0
  7 43  1  0
  7 44  1  0
  8 45  1  0
  8 46  1  0
  8 47  1  0
  9 48  1  0
  9 49  1  0
 10 50  1  0
 11 51  1  0
 11 52  1  0
 11 53  1  0
 12 54  1  0
 13 55  1  0
 13 56  1  0
 13 57  1  0
 14 58  1  0
 15 59  1  0
 15 60  1  0
 16 61  1  0
 16 62  1  0
 16 63  1  0
 17 64  1  0
 17 65  1  0
 18 66  1  0
 19 67  1  0
 19 68  1  0
 19 69  1  0
 20 70  1  0
 21 71  1  0
 21 72  1  0
 21 73  1  0
 22 74  1  0
 23 75  1  0
 23 76  1  0
 24 77  1  0
 24 78  1  0
 24 79  1  0
 25 80  1  0
 25 81  1  0
 26 82  1  0
 27 83  1  0
 27 84  1  0
 27 85  1  0
 28 86  1  0
 29 87  1  0
 29 88  1  0
 29 89  1  0
 30 90  1  0
 30 91  1  0
 30 92  1  0
M  END

