
     RDKit          3D

 14 13  0  0  0  0  0  0  0  0999 V2000
    0.4771    0.5033    0.1650 C   0  0  0  0  0  0  0  0  0  0  0  0
    1.9089    0.0934   -0.0360 C   0  0  0  0  0  0  0  0  0  0  0  0
   -0.4971   -0.6154    0.0106 C   0  0  0  0  0  0  0  0  0  0  0  0
   -1.8886   -0.0590    0.2388 C   0  0  0  0  0  0  0  0  0  0  0  0
    0.3890    0.8931    1.1992 H   0  0  0  0  0  0  0  0  0  0  0  0
    0.2432    1.2668   -0.6085 H   0  0  0  0  0  0  0  0  0  0  0  0
    2.5121    1.0493   -0.0181 H   0  0  0  0  0  0  0  0  0  0  0  0
    2.0821   -0.3161   -1.0623 H   0  0  0  0  0  0  0  0  0  0  0  0
    2.3176   -0.5289    0.7602 H   0  0  0  0  0  0  0  0  0  0  0  0
   -0.4389   -1.1104   -0.9584 H   0  0  0  0  0  0  0  0  0  0  0  0
   -0.3208   -1.4174    0.7831 H   0  0  0  0  0  0  0  0  0  0  0  0
   -1.8820    1.0406    0.3160 H   0  0  0  0  0  0  0  0  0  0  0  0
   -2.5956   -0.3649   -0.5695 H   0  0  0  0  0  0  0  0  0  0  0  0
   -2.3071   -0.4345    1.2008 H   0  0  0  0  0  0  0  0  0  0  0  0
  1  2  1  0
  1  3  1  0
  3  4  1  0
  1  5  1  0
  1  6  1  0
  2  7  1  0
  2  8  1  0
  2  9  1  0
  3 10  1  0
  3 11  1  0
  4 12  1  0
  4 13  1  0
  4 14  1  0
M  END

