
     RDKit          3D

206205  0  0  0  0  0  0  0  0999 V2000
  -15.7292   -1.8615   -2.5747 C   0  0  0  0  0  0  0  0  0  0  0  0
  -15.2451   -3.1407   -3.2290 C   0  0  0  0  0  0  0  0  0  0  0  0
  -16.4435   -2.0788   -1.3005 C   0  0  0  0  0  0  0  0  0  0  0  0
  -15.7965   -2.7317   -0.1642 C   0  0  0  0  0  0  0  0  0  0  0  0
  -16.8518   -2.8605    1.0035 C   0  0  0  0  0  0  0  0  0  0  0  0
  -14.5684   -2.1673    0.4772 C   0  0  0  0  0  0  0  0  0  0  0  0
  -14.7153   -0.8103    1.0417 C   0  0  0  0  0  0  0  0  0  0  0  0
  -15.0890    0.3362    0.2099 C   0  0  0  0  0  0  0  0  0  0  0  0
  -13.2999   -2.5108   -0.2435 C   0  0  0  0  0  0  0  0  0  0  0  0
  -12.0361   -2.0366    0.3834 C   0  0  0  0  0  0  0  0  0  0  0  0
  -11.9196   -2.6789    1.8024 C   0  0  0  0  0  0  0  0  0  0  0  0
  -10.7493   -2.1780   -0.2351 C   0  0  0  0  0  0  0  0  0  0  0  0
  -10.4908   -3.6900   -0.5493 C   0  0  0  0  0  0  0  0  0  0  0  0
  -10.0350   -1.3461   -1.1791 C   0  0  0  0  0  0  0  0  0  0  0  0
  -10.6536   -1.1123   -2.5441 C   0  0  0  0  0  0  0  0  0  0  0  0
  -11.9395   -0.3986   -2.5973 C   0  0  0  0  0  0  0  0  0  0  0  0
   -9.6328    0.0122   -0.7044 C   0  0  0  0  0  0  0  0  0  0  0  0
   -8.8078    0.4127    0.3506 C   0  0  0  0  0  0  0  0  0  0  0  0
   -9.1840   -0.0151    1.7572 C   0  0  0  0  0  0  0  0  0  0  0  0
   -7.3249    0.5976    0.3574 C   0  0  0  0  0  0  0  0  0  0  0  0
   -6.7590   -0.7987    0.0019 C   0  0  0  0  0  0  0  0  0  0  0  0
   -6.7475    1.5050   -0.6534 C   0  0  0  0  0  0  0  0  0  0  0  0
   -7.3786    2.8735   -0.6815 C   0  0  0  0  0  0  0  0  0  0  0  0
   -7.4432    3.7411    0.4572 C   0  0  0  0  0  0  0  0  0  0  0  0
   -5.2535    1.5650   -0.6536 C   0  0  0  0  0  0  0  0  0  0  0  0
   -4.5047    2.0744    0.5305 C   0  0  0  0  0  0  0  0  0  0  0  0
   -4.5935    1.3617    1.8133 C   0  0  0  0  0  0  0  0  0  0  0  0
   -3.2510    2.7653    0.2908 C   0  0  0  0  0  0  0  0  0  0  0  0
   -3.5116    3.9767   -0.6502 C   0  0  0  0  0  0  0  0  0  0  0  0
   -1.8616    2.3974    0.2247 C   0  0  0  0  0  0  0  0  0  0  0  0
   -1.1827    1.8495    1.4737 C   0  0  0  0  0  0  0  0  0  0  0  0
   -1.1704    2.8354    2.6220 C   0  0  0  0  0  0  0  0  0  0  0  0
   -1.4069    1.6116   -0.9665 C   0  0  0  0  0  0  0  0  0  0  0  0
    0.0939    1.2799   -1.0323 C   0  0  0  0  0  0  0  0  0  0  0  0
    0.0670    0.3348   -2.3505 C   0  0  0  0  0  0  0  0  0  0  0  0
    0.9869    2.3722   -1.4370 C   0  0  0  0  0  0  0  0  0  0  0  0
    0.8639    3.7013   -0.6808 C   0  0  0  0  0  0  0  0  0  0  0  0
    2.5271    2.0977   -1.3944 C   0  0  0  0  0  0  0  0  0  0  0  0
    2.8757    1.0199   -2.3458 C   0  0  0  0  0  0  0  0  0  0  0  0
    2.5736    1.2257   -3.7876 C   0  0  0  0  0  0  0  0  0  0  0  0
    2.9085    1.8683   -0.0042 C   0  0  0  0  0  0  0  0  0  0  0  0
    4.1591    1.7236    0.6663 C   0  0  0  0  0  0  0  0  0  0  0  0
    4.9858    3.0722    0.4815 C   0  0  0  0  0  0  0  0  0  0  0  0
    5.1190    0.6474    0.8553 C   0  0  0  0  0  0  0  0  0  0  0  0
    4.5712   -0.6332    1.4259 C   0  0  0  0  0  0  0  0  0  0  0  0
    6.4511    0.5915    0.1869 C   0  0  0  0  0  0  0  0  0  0  0  0
    6.5822    0.4304   -1.2444 C   0  0  0  0  0  0  0  0  0  0  0  0
    5.9988   -0.8357   -1.8247 C   0  0  0  0  0  0  0  0  0  0  0  0
    7.4024   -0.1368    1.0791 C   0  0  0  0  0  0  0  0  0  0  0  0
    8.8567   -0.1809    0.6537 C   0  0  0  0  0  0  0  0  0  0  0  0
    9.3966    1.1828    0.5618 C   0  0  0  0  0  0  0  0  0  0  0  0
    9.5290   -1.1627    1.5668 C   0  0  0  0  0  0  0  0  0  0  0  0
    9.3081   -0.7356    3.0256 C   0  0  0  0  0  0  0  0  0  0  0  0
   11.0537   -1.2847    1.3920 C   0  0  0  0  0  0  0  0  0  0  0  0
   11.2952   -1.6367   -0.0537 C   0  0  0  0  0  0  0  0  0  0  0  0
   10.6725   -2.9537   -0.4413 C   0  0  0  0  0  0  0  0  0  0  0  0
   11.8151   -0.2534    2.0191 C   0  0  0  0  0  0  0  0  0  0  0  0
   13.3027   -0.1111    2.1102 C   0  0  0  0  0  0  0  0  0  0  0  0
   13.9028   -1.2735    2.9303 C   0  0  0  0  0  0  0  0  0  0  0  0
   14.0752    0.1937    0.9358 C   0  0  0  0  0  0  0  0  0  0  0  0
   13.4161    1.4535    0.2447 C   0  0  0  0  0  0  0  0  0  0  0  0
   15.2484   -0.3041    0.2453 C   0  0  0  0  0  0  0  0  0  0  0  0
   16.4917   -0.1595    1.1852 C   0  0  0  0  0  0  0  0  0  0  0  0
   17.7993   -0.5558    0.6166 C   0  0  0  0  0  0  0  0  0  0  0  0
   15.3802   -1.4369   -0.6399 C   0  0  0  0  0  0  0  0  0  0  0  0
   15.2648   -2.8518   -0.5423 C   0  0  0  0  0  0  0  0  0  0  0  0
   14.1295   -3.6850   -0.1505 C   0  0  0  0  0  0  0  0  0  0  0  0
   16.5901   -3.5715   -0.1172 C   0  0  0  0  0  0  0  0  0  0  0  0
  -14.9271   -1.1286   -2.6126 H   0  0  0  0  0  0  0  0  0  0  0  0
  -16.4811   -1.4493   -3.3441 H   0  0  0  0  0  0  0  0  0  0  0  0
  -16.0155   -3.6121   -3.8504 H   0  0  0  0  0  0  0  0  0  0  0  0
  -14.4035   -2.8754   -3.8942 H   0  0  0  0  0  0  0  0  0  0  0  0
  -14.8034   -3.8311   -2.4542 H   0  0  0  0  0  0  0  0  0  0  0  0
  -17.3339   -2.7505   -1.5768 H   0  0  0  0  0  0  0  0  0  0  0  0
  -16.8896   -1.0621   -1.0365 H   0  0  0  0  0  0  0  0  0  0  0  0
  -15.5961   -3.7893   -0.4264 H   0  0  0  0  0  0  0  0  0  0  0  0
  -16.4036   -3.4504    1.8029 H   0  0  0  0  0  0  0  0  0  0  0  0
  -17.1783   -1.8528    1.2477 H   0  0  0  0  0  0  0  0  0  0  0  0
  -17.7321   -3.4197    0.6229 H   0  0  0  0  0  0  0  0  0  0  0  0
  -14.4820   -2.8192    1.4425 H   0  0  0  0  0  0  0  0  0  0  0  0
  -15.5158   -0.8559    1.8772 H   0  0  0  0  0  0  0  0  0  0  0  0
  -13.8159   -0.5416    1.6292 H   0  0  0  0  0  0  0  0  0  0  0  0
  -14.5435    1.2693    0.5828 H   0  0  0  0  0  0  0  0  0  0  0  0
  -16.1681    0.6598    0.3952 H   0  0  0  0  0  0  0  0  0  0  0  0
  -14.8949    0.3283   -0.8486 H   0  0  0  0  0  0  0  0  0  0  0  0
  -13.3150   -3.6564   -0.2896 H   0  0  0  0  0  0  0  0  0  0  0  0
  -13.3916   -2.2338   -1.2881 H   0  0  0  0  0  0  0  0  0  0  0  0
  -12.2050   -0.9421    0.6591 H   0  0  0  0  0  0  0  0  0  0  0  0
  -12.1669   -3.7566    1.7297 H   0  0  0  0  0  0  0  0  0  0  0  0
  -12.4421   -2.1322    2.5681 H   0  0  0  0  0  0  0  0  0  0  0  0
  -10.8408   -2.6256    2.0487 H   0  0  0  0  0  0  0  0  0  0  0  0
  -10.0044   -2.1545    0.7116 H   0  0  0  0  0  0  0  0  0  0  0  0
   -9.4334   -3.7912   -0.8799 H   0  0  0  0  0  0  0  0  0  0  0  0
  -11.2399   -4.0502   -1.2568 H   0  0  0  0  0  0  0  0  0  0  0  0
  -10.5928   -4.2855    0.3763 H   0  0  0  0  0  0  0  0  0  0  0  0
   -9.0757   -1.8946   -1.4211 H   0  0  0  0  0  0  0  0  0  0  0  0
  -10.7025   -2.0647   -3.1340 H   0  0  0  0  0  0  0  0  0  0  0  0
   -9.9444   -0.4930   -3.1877 H   0  0  0  0  0  0  0  0  0  0  0  0
  -12.6638   -0.9931   -3.1883 H   0  0  0  0  0  0  0  0  0  0  0  0
  -11.8842    0.5791   -3.1700 H   0  0  0  0  0  0  0  0  0  0  0  0
  -12.4050   -0.1373   -1.6414 H   0  0  0  0  0  0  0  0  0  0  0  0
  -10.6516    0.5492   -0.5977 H   0  0  0  0  0  0  0  0  0  0  0  0
   -9.2745    0.5542   -1.6591 H   0  0  0  0  0  0  0  0  0  0  0  0
   -9.1113    1.5776    0.4873 H   0  0  0  0  0  0  0  0  0  0  0  0
   -8.9296    0.8090    2.5076 H   0  0  0  0  0  0  0  0  0  0  0  0
   -8.6632   -0.9332    2.0996 H   0  0  0  0  0  0  0  0  0  0  0  0
  -10.2646   -0.1766    1.9113 H   0  0  0  0  0  0  0  0  0  0  0  0
   -7.0134    0.8503    1.3301 H   0  0  0  0  0  0  0  0  0  0  0  0
   -6.9247   -0.9566   -1.1083 H   0  0  0  0  0  0  0  0  0  0  0  0
   -5.7070   -0.9144    0.1476 H   0  0  0  0  0  0  0  0  0  0  0  0
   -7.3148   -1.5996    0.4976 H   0  0  0  0  0  0  0  0  0  0  0  0
   -7.0062    1.0790   -1.6522 H   0  0  0  0  0  0  0  0  0  0  0  0
   -8.4193    2.7374   -1.1204 H   0  0  0  0  0  0  0  0  0  0  0  0
   -6.8518    3.4029   -1.5385 H   0  0  0  0  0  0  0  0  0  0  0  0
   -7.3493    3.3569    1.4852 H   0  0  0  0  0  0  0  0  0  0  0  0
   -8.4787    4.2576    0.4996 H   0  0  0  0  0  0  0  0  0  0  0  0
   -6.7874    4.6363    0.3934 H   0  0  0  0  0  0  0  0  0  0  0  0
   -4.9061    0.5405   -0.9884 H   0  0  0  0  0  0  0  0  0  0  0  0
   -4.8682    2.2014   -1.5158 H   0  0  0  0  0  0  0  0  0  0  0  0
   -5.1914    3.0185    0.7743 H   0  0  0  0  0  0  0  0  0  0  0  0
   -5.3166    1.8299    2.5508 H   0  0  0  0  0  0  0  0  0  0  0  0
   -3.6121    1.5631    2.3633 H   0  0  0  0  0  0  0  0  0  0  0  0
   -4.8016    0.2950    1.8238 H   0  0  0  0  0  0  0  0  0  0  0  0
   -3.2326    3.4453    1.3220 H   0  0  0  0  0  0  0  0  0  0  0  0
   -4.5537    4.3067   -0.4388 H   0  0  0  0  0  0  0  0  0  0  0  0
   -2.8469    4.8170   -0.3996 H   0  0  0  0  0  0  0  0  0  0  0  0
   -3.4821    3.6830   -1.6963 H   0  0  0  0  0  0  0  0  0  0  0  0
   -1.3246    3.3871    0.1277 H   0  0  0  0  0  0  0  0  0  0  0  0
   -0.0920    1.7564    1.2021 H   0  0  0  0  0  0  0  0  0  0  0  0
   -1.4546    0.8352    1.7284 H   0  0  0  0  0  0  0  0  0  0  0  0
   -1.8221    2.5629    3.4598 H   0  0  0  0  0  0  0  0  0  0  0  0
   -0.1316    3.0587    2.9815 H   0  0  0  0  0  0  0  0  0  0  0  0
   -1.5208    3.8118    2.2168 H   0  0  0  0  0  0  0  0  0  0  0  0
   -1.7662    2.0335   -1.9286 H   0  0  0  0  0  0  0  0  0  0  0  0
   -1.9135    0.6088   -0.8958 H   0  0  0  0  0  0  0  0  0  0  0  0
    0.4138    0.6704   -0.2450 H   0  0  0  0  0  0  0  0  0  0  0  0
   -0.0920    0.9499   -3.2107 H   0  0  0  0  0  0  0  0  0  0  0  0
   -0.9404   -0.2057   -2.2057 H   0  0  0  0  0  0  0  0  0  0  0  0
    0.7837   -0.4354   -2.2728 H   0  0  0  0  0  0  0  0  0  0  0  0
    0.8025    2.6605   -2.4990 H   0  0  0  0  0  0  0  0  0  0  0  0
    0.8109    3.7067    0.3686 H   0  0  0  0  0  0  0  0  0  0  0  0
    0.1302    4.3451   -1.2492 H   0  0  0  0  0  0  0  0  0  0  0  0
    1.8456    4.2500   -0.9407 H   0  0  0  0  0  0  0  0  0  0  0  0
    2.9234    3.0428   -1.8463 H   0  0  0  0  0  0  0  0  0  0  0  0
    2.8139   -0.0225   -1.9688 H   0  0  0  0  0  0  0  0  0  0  0  0
    4.0638    1.1112   -2.3518 H   0  0  0  0  0  0  0  0  0  0  0  0
    3.5355    1.3813   -4.3764 H   0  0  0  0  0  0  0  0  0  0  0  0
    1.8916    2.0404   -3.9932 H   0  0  0  0  0  0  0  0  0  0  0  0
    2.1765    0.2710   -4.2551 H   0  0  0  0  0  0  0  0  0  0  0  0
    2.2926    0.9093    0.2776 H   0  0  0  0  0  0  0  0  0  0  0  0
    2.2279    2.6115    0.5884 H   0  0  0  0  0  0  0  0  0  0  0  0
    3.8491    1.9588    1.7838 H   0  0  0  0  0  0  0  0  0  0  0  0
    4.2854    3.9174    0.4048 H   0  0  0  0  0  0  0  0  0  0  0  0
    5.5743    3.0587   -0.4115 H   0  0  0  0  0  0  0  0  0  0  0  0
    5.6148    3.2445    1.3590 H   0  0  0  0  0  0  0  0  0  0  0  0
    5.6292    0.9878    1.9570 H   0  0  0  0  0  0  0  0  0  0  0  0
    5.2217   -1.1093    2.1817 H   0  0  0  0  0  0  0  0  0  0  0  0
    3.6269   -0.3941    1.9775 H   0  0  0  0  0  0  0  0  0  0  0  0
    4.4070   -1.4190    0.6616 H   0  0  0  0  0  0  0  0  0  0  0  0
    6.8502    1.7047    0.3464 H   0  0  0  0  0  0  0  0  0  0  0  0
    6.2318    1.2749   -1.8269 H   0  0  0  0  0  0  0  0  0  0  0  0
    7.6799    0.3642   -1.5162 H   0  0  0  0  0  0  0  0  0  0  0  0
    6.5353   -1.6843   -1.2987 H   0  0  0  0  0  0  0  0  0  0  0  0
    6.3054   -0.9074   -2.8868 H   0  0  0  0  0  0  0  0  0  0  0  0
    4.9494   -0.9876   -1.6285 H   0  0  0  0  0  0  0  0  0  0  0  0
    7.0406   -1.1585    1.3517 H   0  0  0  0  0  0  0  0  0  0  0  0
    7.3461    0.3975    2.0814 H   0  0  0  0  0  0  0  0  0  0  0  0
    8.8332   -0.6043   -0.3967 H   0  0  0  0  0  0  0  0  0  0  0  0
    8.6670    1.8096   -0.0516 H   0  0  0  0  0  0  0  0  0  0  0  0
    9.3927    1.7421    1.5317 H   0  0  0  0  0  0  0  0  0  0  0  0
   10.3285    1.3086   -0.0312 H   0  0  0  0  0  0  0  0  0  0  0  0
    9.0953   -2.1406    1.4320 H   0  0  0  0  0  0  0  0  0  0  0  0
    9.8844   -1.3314    3.7422 H   0  0  0  0  0  0  0  0  0  0  0  0
    9.5285    0.3326    3.1926 H   0  0  0  0  0  0  0  0  0  0  0  0
    8.2270   -0.9600    3.3090 H   0  0  0  0  0  0  0  0  0  0  0  0
   11.2726   -2.2706    1.9331 H   0  0  0  0  0  0  0  0  0  0  0  0
   10.7711   -0.8947   -0.7318 H   0  0  0  0  0  0  0  0  0  0  0  0
   12.3599   -1.6556   -0.2541 H   0  0  0  0  0  0  0  0  0  0  0  0
   10.9726   -3.7023    0.3205 H   0  0  0  0  0  0  0  0  0  0  0  0
    9.5870   -2.8630   -0.3921 H   0  0  0  0  0  0  0  0  0  0  0  0
   11.0460   -3.2193   -1.4515 H   0  0  0  0  0  0  0  0  0  0  0  0
   11.4230   -0.2623    3.1349 H   0  0  0  0  0  0  0  0  0  0  0  0
   11.4674    0.8190    1.7958 H   0  0  0  0  0  0  0  0  0  0  0  0
   13.4077    0.7276    2.8462 H   0  0  0  0  0  0  0  0  0  0  0  0
   14.4358   -2.0018    2.3548 H   0  0  0  0  0  0  0  0  0  0  0  0
   13.0548   -1.6658    3.5387 H   0  0  0  0  0  0  0  0  0  0  0  0
   14.5740   -0.8259    3.7274 H   0  0  0  0  0  0  0  0  0  0  0  0
   14.8361    1.0611    1.6022 H   0  0  0  0  0  0  0  0  0  0  0  0
   12.6741    1.0944   -0.4809 H   0  0  0  0  0  0  0  0  0  0  0  0
   12.9272    2.0204    1.0445 H   0  0  0  0  0  0  0  0  0  0  0  0
   14.1921    2.0799   -0.2184 H   0  0  0  0  0  0  0  0  0  0  0  0
   15.4895    0.5843   -0.4599 H   0  0  0  0  0  0  0  0  0  0  0  0
   16.5394    0.9149    1.4497 H   0  0  0  0  0  0  0  0  0  0  0  0
   16.3441   -0.7380    2.1109 H   0  0  0  0  0  0  0  0  0  0  0  0
   18.5592    0.2515    0.9330 H   0  0  0  0  0  0  0  0  0  0  0  0
   18.1574   -1.5284    1.0168 H   0  0  0  0  0  0  0  0  0  0  0  0
   17.8031   -0.4640   -0.4775 H   0  0  0  0  0  0  0  0  0  0  0  0
   16.3148   -1.2950   -1.3384 H   0  0  0  0  0  0  0  0  0  0  0  0
   14.6075   -1.1557   -1.5192 H   0  0  0  0  0  0  0  0  0  0  0  0
   15.3354   -3.1780   -1.7004 H   0  0  0  0  0  0  0  0  0  0  0  0
   13.3444   -3.6973   -0.9687 H   0  0  0  0  0  0  0  0  0  0  0  0
   13.6298   -3.3265    0.7502 H   0  0  0  0  0  0  0  0  0  0  0  0
   14.3867   -4.7803   -0.0745 H   0  0  0  0  0  0  0  0  0  0  0  0
   16.6412   -3.6799    0.9774 H   0  0  0  0  0  0  0  0  0  0  0  0
   16.5627   -4.6337   -0.5113 H   0  0  0  0  0  0  0  0  0  0  0  0
   17.4583   -3.1255   -0.6111 H   0  0  0  0  0  0  0  0  0  0  0  0
  1  2  1  0
  1  3  1  0
  3  4  1  0
  4  5  1  0
  4  6  1  0
  6  7  1  0
  6  9  1  0
  7  8  1  0
  9 10  1  0
 10 11  1  0
 10 12  1  0
 12 13  1  0
 12 14  1  0
 14 15  1  0
 14 17  1  0
 15 16  1  0
 17 18  1  0
 18 19  1  0
 18 20  1  0
 20 21  1  0
 20 22  1  0
 22 23  1  0
 22 25  1  0
 23 24  1  0
 25 26  1  0
 26 27  1  0
 26 28  1  0
 28 29  1  0
 28 30  1  0
 30 31  1  0
 30 33  1  0
 31 32  1  0
 33 34  1  0
 34 35  1  0
 34 36  1  0
 36 37  1  0
 36 38  1  0
 38 39  1  0
 38 41  1  0
 39 40  1  0
 41 42  1  0
 42 43  1  0
 42 44  1  0
 44 45  1  0
 44 46  1  0
 46 47  1  0
 46 49  1  0
 47 48  1  0
 49 50  1  0
 50 51  1  0
 50 52  1  0
 52 53  1  0
 52 54  1  0
 54 55  1  0
 54 57  1  0
 55 56  1  0
 57 58  1  0
 58 59  1  0
 58 60  1  0
 60 61  1  0
 60 62  1  0
 62 63  1  0
 62 65  1  0
 63 64  1  0
 65 66  1  0
 66 67  1  0
 66 68  1  0
  1 69  1  0
  1 70  1  0
  2 71  1  0
  2 72  1  0
  2 73  1  0
  3 74  1  0
  3 75  1  0
  4 76  1  0
  5 77  1  0
  5 78  1  0
  5 79  1  0
  6 80  1  0
  7 81  1  0
  7 82  1  0
  8 83  1  0
  8 84  1  0
  8 85  1  0
  9 86  1  0
  9 87  1  0
 10 88  1  0
 11 89  1  0
 11 90  1  0
 11 91  1  0
 12 92  1  0
 13 93  1  0
 13 94  1  0
 13 95  1  0
 14 96  1  0
 15 97  1  0
 15 98  1  0
 16 99  1  0
 16100  1  0
 16101  1  0
 17102  1  0
 17103  1  0
 18104  1  0
 19105  1  0
 19106  1  0
 19107  1  0
 20108  1  0
 21109  1  0
 21110  1  0
 21111  1  0
 22112  1  0
 23113  1  0
 23114  1  0
 24115  1  0
 24116  1  0
 24117  1  0
 25118  1  0
 25119  1  0
 26120  1  0
 27121  1  0
 27122  1  0
 27123  1  0
 28124  1  0
 29125  1  0
 29126  1  0
 29127  1  0
 30128  1  0
 31129  1  0
 31130  1  0
 32131  1  0
 32132  1  0
 32133  1  0
 33134  1  0
 33135  1  0
 34136  1  0
 35137  1  0
 35138  1  0
 35139  1  0
 36140  1  0
 37141  1  0
 37142  1  0
 37143  1  0
 38144  1  0
 39145  1  0
 39146  1  0
 40147  1  0
 40148  1  0
 40149  1  0
 41150  1  0
 41151  1  0
 42152  1  0
 43153  1  0
 43154  1  0
 43155  1  0
 44156  1  0
 45157  1  0
 45158  1  0
 45159  1  0
 46160  1  0
 47161  1  0
 47162  1  0
 48163  1  0
 48164  1  0
 48165  1  0
 49166  1  0
 49167  1  0
 50168  1  0
 51169  1  0
 51170  1  0
 51171  1  0
 52172  1  0
 53173  1  0
 53174  1  0
 53175  1  0
 54176  1  0
 55177  1  0
 55178  1  0
 56179  1  0
 56180  1  0
 56181  1  0
 57182  1  0
 57183  1  0
 58184  1  0
 59185  1  0
 59186  1  0
 59187  1  0
 60188  1  0
 61189  1  0
 61190  1  0
 61191  1  0
 62192  1  0
 63193  1  0
 63194  1  0
 64195  1  0
 64196  1  0
 64197  1  0
 65198  1  0
 65199  1  0
 66200  1  0
 67201  1  0
 67202  1  0
 67203  1  0
 68204  1  0
 68205  1  0
 68206  1  0
M  END

