
     RDKit          3D

 32 31  0  0  0  0  0  0  0  0999 V2000
    2.8049   -0.3568    0.0911 C   0  0  0  0  0  0  0  0  0  0  0  0
    3.7166   -0.4930   -1.0955 C   0  0  0  0  0  0  0  0  0  0  0  0
    1.3495   -0.1460   -0.3563 C   0  0  0  0  0  0  0  0  0  0  0  0
    0.5120   -0.0204    0.8457 C   0  0  0  0  0  0  0  0  0  0  0  0
    0.6663   -1.3110    1.6248 C   0  0  0  0  0  0  0  0  0  0  0  0
   -0.9461    0.3207    0.6115 C   0  0  0  0  0  0  0  0  0  0  0  0
   -1.5044   -0.7770   -0.2199 C   0  0  0  0  0  0  0  0  0  0  0  0
   -2.9317   -0.7214   -0.6005 C   0  0  0  0  0  0  0  0  0  0  0  0
   -1.1195    1.7103    0.1051 C   0  0  0  0  0  0  0  0  0  0  0  0
   -2.5204    2.1635   -0.1491 C   0  0  0  0  0  0  0  0  0  0  0  0
    2.8866   -1.2153    0.7892 H   0  0  0  0  0  0  0  0  0  0  0  0
    3.1407    0.5334    0.6631 H   0  0  0  0  0  0  0  0  0  0  0  0
    4.6349   -1.0254   -0.7602 H   0  0  0  0  0  0  0  0  0  0  0  0
    3.2316   -1.0743   -1.9140 H   0  0  0  0  0  0  0  0  0  0  0  0
    4.0092    0.5257   -1.4356 H   0  0  0  0  0  0  0  0  0  0  0  0
    1.1269   -1.0809   -0.9537 H   0  0  0  0  0  0  0  0  0  0  0  0
    1.3518    0.6672   -1.0705 H   0  0  0  0  0  0  0  0  0  0  0  0
    0.9325    0.7744    1.4980 H   0  0  0  0  0  0  0  0  0  0  0  0
    1.5425   -1.2373    2.3253 H   0  0  0  0  0  0  0  0  0  0  0  0
    0.9244   -2.1474    0.9348 H   0  0  0  0  0  0  0  0  0  0  0  0
   -0.2051   -1.5359    2.2583 H   0  0  0  0  0  0  0  0  0  0  0  0
   -1.4563    0.2785    1.5985 H   0  0  0  0  0  0  0  0  0  0  0  0
   -0.8898   -0.9229   -1.1465 H   0  0  0  0  0  0  0  0  0  0  0  0
   -1.3636   -1.7595    0.3270 H   0  0  0  0  0  0  0  0  0  0  0  0
   -3.2320   -0.0212   -1.3701 H   0  0  0  0  0  0  0  0  0  0  0  0
   -3.5920   -0.7270    0.3177 H   0  0  0  0  0  0  0  0  0  0  0  0
   -3.1706   -1.7431   -1.0479 H   0  0  0  0  0  0  0  0  0  0  0  0
   -0.7231    2.3899    0.9197 H   0  0  0  0  0  0  0  0  0  0  0  0
   -0.5163    1.8174   -0.8194 H   0  0  0  0  0  0  0  0  0  0  0  0
   -3.3096    1.6185    0.3598 H   0  0  0  0  0  0  0  0  0  0  0  0
   -2.6757    3.2430    0.1901 H   0  0  0  0  0  0  0  0  0  0  0  0
   -2.6744    2.2733   -1.2652 H   0  0  0  0  0  0  0  0  0  0  0  0
  1  2  1  0
  1  3  1  0
  3  4  1  0
  4  5  1  0
  4  6  1  0
  6  7  1  0
  6  9  1  0
  7  8  1  0
  9 10  1  0
  1 11  1  0
  1 12  1  0
  2 13  1  0
  2 14  1  0
  2 15  1  0
  3 16  1  0
  3 17  1  0
  4 18  1  0
  5 19  1  0
  5 20  1  0
  5 21  1  0
  6 22  1  0
  7 23  1  0
  7 24  1  0
  8 25  1  0
  8 26  1  0
  8 27  1  0
  9 28  1  0
  9 29  1  0
 10 30  1  0
 10 31  1  0
 10 32  1  0
M  END

