
     RDKit          3D

236235  0  0  0  0  0  0  0  0999 V2000
  -17.9872    3.1942   -1.0781 C   0  0  0  0  0  0  0  0  0  0  0  0
  -19.1712    3.1719   -1.9709 C   0  0  0  0  0  0  0  0  0  0  0  0
  -17.6779    2.0139   -0.2447 C   0  0  0  0  0  0  0  0  0  0  0  0
  -17.3311    0.7598   -0.9380 C   0  0  0  0  0  0  0  0  0  0  0  0
  -18.4831    0.2585   -1.7642 C   0  0  0  0  0  0  0  0  0  0  0  0
  -16.8359   -0.3297   -0.0452 C   0  0  0  0  0  0  0  0  0  0  0  0
  -16.4993   -1.5645   -0.8483 C   0  0  0  0  0  0  0  0  0  0  0  0
  -15.5174   -1.3985   -1.9401 C   0  0  0  0  0  0  0  0  0  0  0  0
  -16.1708   -0.0919    1.2044 C   0  0  0  0  0  0  0  0  0  0  0  0
  -14.9545    0.5665    1.6094 C   0  0  0  0  0  0  0  0  0  0  0  0
  -15.0593    0.3854    3.2344 C   0  0  0  0  0  0  0  0  0  0  0  0
  -13.5797    0.0666    1.3915 C   0  0  0  0  0  0  0  0  0  0  0  0
  -13.4990   -1.3453    2.0713 C   0  0  0  0  0  0  0  0  0  0  0  0
  -12.8538    0.0612    0.1585 C   0  0  0  0  0  0  0  0  0  0  0  0
  -12.6564    1.4043   -0.5585 C   0  0  0  0  0  0  0  0  0  0  0  0
  -13.9083    2.0786   -1.0205 C   0  0  0  0  0  0  0  0  0  0  0  0
  -11.4101   -0.5514    0.1694 C   0  0  0  0  0  0  0  0  0  0  0  0
  -10.4029    0.1022    0.9838 C   0  0  0  0  0  0  0  0  0  0  0  0
  -10.5523    0.1670    2.4780 C   0  0  0  0  0  0  0  0  0  0  0  0
   -9.0076   -0.0917    0.5342 C   0  0  0  0  0  0  0  0  0  0  0  0
   -8.2607    0.9851    1.4751 C   0  0  0  0  0  0  0  0  0  0  0  0
   -8.1668   -1.2792    0.8118 C   0  0  0  0  0  0  0  0  0  0  0  0
   -8.5480   -2.6454    0.4340 C   0  0  0  0  0  0  0  0  0  0  0  0
   -9.7720   -3.2341    1.0993 C   0  0  0  0  0  0  0  0  0  0  0  0
   -6.7861   -0.8915    0.2950 C   0  0  0  0  0  0  0  0  0  0  0  0
   -5.6033   -1.6760    0.3698 C   0  0  0  0  0  0  0  0  0  0  0  0
   -5.2821   -2.1290    1.8334 C   0  0  0  0  0  0  0  0  0  0  0  0
   -5.0327   -2.6303   -0.5908 C   0  0  0  0  0  0  0  0  0  0  0  0
   -5.6683   -3.8667   -0.9723 C   0  0  0  0  0  0  0  0  0  0  0  0
   -3.5089   -2.4845   -0.7382 C   0  0  0  0  0  0  0  0  0  0  0  0
   -2.9058   -3.6084   -1.5871 C   0  0  0  0  0  0  0  0  0  0  0  0
   -3.0585   -4.9777   -0.9915 C   0  0  0  0  0  0  0  0  0  0  0  0
   -3.2663   -1.2386   -1.5795 C   0  0  0  0  0  0  0  0  0  0  0  0
   -1.8913   -0.8023   -1.8656 C   0  0  0  0  0  0  0  0  0  0  0  0
   -2.1084    0.3850   -2.8814 C   0  0  0  0  0  0  0  0  0  0  0  0
   -0.9653   -0.3155   -0.7966 C   0  0  0  0  0  0  0  0  0  0  0  0
    0.3760   -0.0910   -1.5770 C   0  0  0  0  0  0  0  0  0  0  0  0
   -1.2095    0.9089   -0.0965 C   0  0  0  0  0  0  0  0  0  0  0  0
   -2.4867    1.0607    0.7379 C   0  0  0  0  0  0  0  0  0  0  0  0
   -2.5097    0.0953    1.8826 C   0  0  0  0  0  0  0  0  0  0  0  0
   -0.1916    1.5432    0.7832 C   0  0  0  0  0  0  0  0  0  0  0  0
    1.1286    2.0300    0.4464 C   0  0  0  0  0  0  0  0  0  0  0  0
    1.3581    3.0058   -0.6337 C   0  0  0  0  0  0  0  0  0  0  0  0
    2.3011    1.4052    1.1832 C   0  0  0  0  0  0  0  0  0  0  0  0
    2.1114    1.6189    2.6684 C   0  0  0  0  0  0  0  0  0  0  0  0
    3.6596    1.7095    0.6316 C   0  0  0  0  0  0  0  0  0  0  0  0
    4.6895    1.0745    1.5748 C   0  0  0  0  0  0  0  0  0  0  0  0
    4.7669    1.5731    2.9608 C   0  0  0  0  0  0  0  0  0  0  0  0
    3.8839    0.9501   -0.6674 C   0  0  0  0  0  0  0  0  0  0  0  0
    5.0873    1.1461   -1.4547 C   0  0  0  0  0  0  0  0  0  0  0  0
    5.0316    2.6930   -1.8308 C   0  0  0  0  0  0  0  0  0  0  0  0
    6.4575    0.9250   -1.1374 C   0  0  0  0  0  0  0  0  0  0  0  0
    7.1762    1.3862   -2.5148 C   0  0  0  0  0  0  0  0  0  0  0  0
    7.1153   -0.4569   -0.9868 C   0  0  0  0  0  0  0  0  0  0  0  0
    6.4666   -1.3603   -0.0218 C   0  0  0  0  0  0  0  0  0  0  0  0
    7.0542   -2.7722   -0.0138 C   0  0  0  0  0  0  0  0  0  0  0  0
    8.4422   -0.0357   -0.4389 C   0  0  0  0  0  0  0  0  0  0  0  0
    9.6541   -0.6760   -0.0282 C   0  0  0  0  0  0  0  0  0  0  0  0
    9.6386   -1.6441    1.1162 C   0  0  0  0  0  0  0  0  0  0  0  0
   10.6292   -1.0339   -1.1190 C   0  0  0  0  0  0  0  0  0  0  0  0
   10.2634   -2.0195   -2.1271 C   0  0  0  0  0  0  0  0  0  0  0  0
   12.0829   -0.9287   -0.8355 C   0  0  0  0  0  0  0  0  0  0  0  0
   12.7489   -1.6882    0.1962 C   0  0  0  0  0  0  0  0  0  0  0  0
   12.6459   -3.2107    0.0365 C   0  0  0  0  0  0  0  0  0  0  0  0
   12.5518    0.4923   -0.9589 C   0  0  0  0  0  0  0  0  0  0  0  0
   13.9251    0.9249   -0.6724 C   0  0  0  0  0  0  0  0  0  0  0  0
   13.8459    2.4770   -1.1267 C   0  0  0  0  0  0  0  0  0  0  0  0
   14.3851    1.0140    0.7422 C   0  0  0  0  0  0  0  0  0  0  0  0
   13.4951    2.0270    1.5115 C   0  0  0  0  0  0  0  0  0  0  0  0
   15.7895    1.5694    0.9341 C   0  0  0  0  0  0  0  0  0  0  0  0
   16.0021    1.6687    2.5008 C   0  0  0  0  0  0  0  0  0  0  0  0
   17.3785    2.2127    2.7191 C   0  0  0  0  0  0  0  0  0  0  0  0
   16.9371    0.7694    0.5056 C   0  0  0  0  0  0  0  0  0  0  0  0
   17.1511    0.3542   -0.9085 C   0  0  0  0  0  0  0  0  0  0  0  0
   17.2494    1.4798   -1.8785 C   0  0  0  0  0  0  0  0  0  0  0  0
   18.5573   -0.3386   -0.9673 C   0  0  0  0  0  0  0  0  0  0  0  0
   18.6016   -1.5317   -0.0759 C   0  0  0  0  0  0  0  0  0  0  0  0
   19.6033    0.6726   -0.5801 C   0  0  0  0  0  0  0  0  0  0  0  0
  -17.0754    3.4695   -1.7335 H   0  0  0  0  0  0  0  0  0  0  0  0
  -18.1346    4.0848   -0.3862 H   0  0  0  0  0  0  0  0  0  0  0  0
  -18.9651    2.9877   -3.0460 H   0  0  0  0  0  0  0  0  0  0  0  0
  -19.7447    4.1620   -1.9060 H   0  0  0  0  0  0  0  0  0  0  0  0
  -19.9109    2.4439   -1.6179 H   0  0  0  0  0  0  0  0  0  0  0  0
  -16.9490    2.3044    0.5548 H   0  0  0  0  0  0  0  0  0  0  0  0
  -18.6319    1.8641    0.3964 H   0  0  0  0  0  0  0  0  0  0  0  0
  -16.5440    0.9973   -1.7503 H   0  0  0  0  0  0  0  0  0  0  0  0
  -19.4499    0.2498   -1.1916 H   0  0  0  0  0  0  0  0  0  0  0  0
  -18.3627   -0.8258   -2.0437 H   0  0  0  0  0  0  0  0  0  0  0  0
  -18.6562    0.8030   -2.7019 H   0  0  0  0  0  0  0  0  0  0  0  0
  -17.9369   -0.7199    0.3549 H   0  0  0  0  0  0  0  0  0  0  0  0
  -15.9942   -2.3243   -0.1237 H   0  0  0  0  0  0  0  0  0  0  0  0
  -17.3621   -2.1602   -1.1926 H   0  0  0  0  0  0  0  0  0  0  0  0
  -16.0274   -1.6782   -2.9139 H   0  0  0  0  0  0  0  0  0  0  0  0
  -14.6637   -2.1361   -1.8993 H   0  0  0  0  0  0  0  0  0  0  0  0
  -15.1478   -0.3760   -2.1237 H   0  0  0  0  0  0  0  0  0  0  0  0
  -16.2393   -1.1541    1.7472 H   0  0  0  0  0  0  0  0  0  0  0  0
  -17.0479    0.3727    1.8964 H   0  0  0  0  0  0  0  0  0  0  0  0
  -15.0416    1.6745    1.6245 H   0  0  0  0  0  0  0  0  0  0  0  0
  -15.8355    1.0617    3.5751 H   0  0  0  0  0  0  0  0  0  0  0  0
  -15.2200   -0.6729    3.4094 H   0  0  0  0  0  0  0  0  0  0  0  0
  -14.0689    0.6977    3.5567 H   0  0  0  0  0  0  0  0  0  0  0  0
  -12.9044    0.6364    2.1500 H   0  0  0  0  0  0  0  0  0  0  0  0
  -13.3399   -1.2701    3.1426 H   0  0  0  0  0  0  0  0  0  0  0  0
  -12.6432   -1.8425    1.6317 H   0  0  0  0  0  0  0  0  0  0  0  0
  -14.3883   -1.9437    1.7891 H   0  0  0  0  0  0  0  0  0  0  0  0
  -13.3549   -0.5574   -0.6034 H   0  0  0  0  0  0  0  0  0  0  0  0
  -12.0316    2.1075    0.0485 H   0  0  0  0  0  0  0  0  0  0  0  0
  -12.0527    1.1640   -1.4575 H   0  0  0  0  0  0  0  0  0  0  0  0
  -14.1065    1.9063   -2.1100 H   0  0  0  0  0  0  0  0  0  0  0  0
  -14.8040    1.7635   -0.5059 H   0  0  0  0  0  0  0  0  0  0  0  0
  -13.8314    3.1954   -0.9455 H   0  0  0  0  0  0  0  0  0  0  0  0
  -11.1032   -0.2687   -0.9306 H   0  0  0  0  0  0  0  0  0  0  0  0
  -11.5850   -1.6049    0.1699 H   0  0  0  0  0  0  0  0  0  0  0  0
  -10.5405    1.2557    0.7217 H   0  0  0  0  0  0  0  0  0  0  0  0
  -11.0734   -0.6536    2.9576 H   0  0  0  0  0  0  0  0  0  0  0  0
  -10.7575    1.1800    2.8732 H   0  0  0  0  0  0  0  0  0  0  0  0
   -9.4724    0.0058    2.8750 H   0  0  0  0  0  0  0  0  0  0  0  0
   -8.8833    0.2419   -0.4991 H   0  0  0  0  0  0  0  0  0  0  0  0
   -9.0210    1.6251    1.9528 H   0  0  0  0  0  0  0  0  0  0  0  0
   -7.7275    1.6911    0.7849 H   0  0  0  0  0  0  0  0  0  0  0  0
   -7.6698    0.4884    2.2213 H   0  0  0  0  0  0  0  0  0  0  0  0
   -8.0412   -1.3453    1.9645 H   0  0  0  0  0  0  0  0  0  0  0  0
   -7.7221   -3.3626    0.7317 H   0  0  0  0  0  0  0  0  0  0  0  0
   -8.6326   -2.7830   -0.6820 H   0  0  0  0  0  0  0  0  0  0  0  0
  -10.4953   -3.6420    0.3492 H   0  0  0  0  0  0  0  0  0  0  0  0
  -10.2569   -2.5980    1.8317 H   0  0  0  0  0  0  0  0  0  0  0  0
   -9.4497   -4.1731    1.6555 H   0  0  0  0  0  0  0  0  0  0  0  0
   -6.9793   -0.7061   -0.8481 H   0  0  0  0  0  0  0  0  0  0  0  0
   -6.6074    0.2156    0.5805 H   0  0  0  0  0  0  0  0  0  0  0  0
   -4.7406   -0.8153    0.3487 H   0  0  0  0  0  0  0  0  0  0  0  0
   -5.5128   -1.2842    2.4665 H   0  0  0  0  0  0  0  0  0  0  0  0
   -4.1995   -2.3101    1.8380 H   0  0  0  0  0  0  0  0  0  0  0  0
   -5.7718   -3.0679    2.0749 H   0  0  0  0  0  0  0  0  0  0  0  0
   -5.3533   -1.9703   -1.6293 H   0  0  0  0  0  0  0  0  0  0  0  0
   -6.6867   -3.6498   -1.4435 H   0  0  0  0  0  0  0  0  0  0  0  0
   -5.1672   -4.3571   -1.8637 H   0  0  0  0  0  0  0  0  0  0  0  0
   -5.9382   -4.6027   -0.1843 H   0  0  0  0  0  0  0  0  0  0  0  0
   -3.0563   -2.4347    0.1912 H   0  0  0  0  0  0  0  0  0  0  0  0
   -3.3862   -3.6313   -2.5942 H   0  0  0  0  0  0  0  0  0  0  0  0
   -1.8343   -3.4046   -1.7918 H   0  0  0  0  0  0  0  0  0  0  0  0
   -2.0262   -5.3401   -0.6356 H   0  0  0  0  0  0  0  0  0  0  0  0
   -3.2875   -5.7073   -1.7996 H   0  0  0  0  0  0  0  0  0  0  0  0
   -3.6848   -5.0343   -0.1064 H   0  0  0  0  0  0  0  0  0  0  0  0
   -3.9421   -0.4206   -1.3000 H   0  0  0  0  0  0  0  0  0  0  0  0
   -3.7713   -1.5824   -2.5844 H   0  0  0  0  0  0  0  0  0  0  0  0
   -1.4035   -1.5239   -2.4810 H   0  0  0  0  0  0  0  0  0  0  0  0
   -2.8488   -0.0386   -3.5994 H   0  0  0  0  0  0  0  0  0  0  0  0
   -2.5993    1.2215   -2.4235 H   0  0  0  0  0  0  0  0  0  0  0  0
   -1.2124    0.5261   -3.4768 H   0  0  0  0  0  0  0  0  0  0  0  0
   -0.7494   -1.1517   -0.1727 H   0  0  0  0  0  0  0  0  0  0  0  0
    0.3088    0.7183   -2.2794 H   0  0  0  0  0  0  0  0  0  0  0  0
    0.4225   -1.0339   -2.2280 H   0  0  0  0  0  0  0  0  0  0  0  0
    1.2245   -0.1775   -0.9243 H   0  0  0  0  0  0  0  0  0  0  0  0
   -1.4060    1.7282   -0.8784 H   0  0  0  0  0  0  0  0  0  0  0  0
   -2.3603    2.0688    1.2388 H   0  0  0  0  0  0  0  0  0  0  0  0
   -3.3933    1.2059    0.1808 H   0  0  0  0  0  0  0  0  0  0  0  0
   -2.1336   -0.8752    1.5513 H   0  0  0  0  0  0  0  0  0  0  0  0
   -1.9191    0.4768    2.7636 H   0  0  0  0  0  0  0  0  0  0  0  0
   -3.5499    0.0351    2.2385 H   0  0  0  0  0  0  0  0  0  0  0  0
    0.0193    0.6621    1.5497 H   0  0  0  0  0  0  0  0  0  0  0  0
   -0.7224    2.2316    1.5512 H   0  0  0  0  0  0  0  0  0  0  0  0
    1.0906    3.0120    1.3213 H   0  0  0  0  0  0  0  0  0  0  0  0
    0.6246    3.8653   -0.5160 H   0  0  0  0  0  0  0  0  0  0  0  0
    1.3295    2.6591   -1.6764 H   0  0  0  0  0  0  0  0  0  0  0  0
    2.3402    3.5006   -0.4815 H   0  0  0  0  0  0  0  0  0  0  0  0
    2.1852    0.2835    1.0757 H   0  0  0  0  0  0  0  0  0  0  0  0
    2.5333    2.5113    3.0923 H   0  0  0  0  0  0  0  0  0  0  0  0
    2.1245    0.6853    3.2655 H   0  0  0  0  0  0  0  0  0  0  0  0
    0.9692    1.8701    2.7562 H   0  0  0  0  0  0  0  0  0  0  0  0
    3.9037    2.7789    0.5457 H   0  0  0  0  0  0  0  0  0  0  0  0
    4.5071   -0.0313    1.6364 H   0  0  0  0  0  0  0  0  0  0  0  0
    5.7006    1.1404    1.1356 H   0  0  0  0  0  0  0  0  0  0  0  0
    5.8849    1.4205    3.3021 H   0  0  0  0  0  0  0  0  0  0  0  0
    4.7332    2.7000    3.0354 H   0  0  0  0  0  0  0  0  0  0  0  0
    4.2404    1.0550    3.7385 H   0  0  0  0  0  0  0  0  0  0  0  0
    3.5849   -0.1064   -0.4264 H   0  0  0  0  0  0  0  0  0  0  0  0
    3.0177    1.2847   -1.3183 H   0  0  0  0  0  0  0  0  0  0  0  0
    4.7959    0.7785   -2.5209 H   0  0  0  0  0  0  0  0  0  0  0  0
    3.9483    2.8430   -2.0868 H   0  0  0  0  0  0  0  0  0  0  0  0
    5.2467    3.2865   -0.9462 H   0  0  0  0  0  0  0  0  0  0  0  0
    5.5812    2.8924   -2.7338 H   0  0  0  0  0  0  0  0  0  0  0  0
    6.8904    1.6868   -0.4879 H   0  0  0  0  0  0  0  0  0  0  0  0
    8.0059    0.7089   -2.6341 H   0  0  0  0  0  0  0  0  0  0  0  0
    7.4817    2.4139   -2.4103 H   0  0  0  0  0  0  0  0  0  0  0  0
    6.4299    1.2686   -3.3291 H   0  0  0  0  0  0  0  0  0  0  0  0
    7.2366   -0.9355   -1.9537 H   0  0  0  0  0  0  0  0  0  0  0  0
    6.6259   -0.9265    1.0194 H   0  0  0  0  0  0  0  0  0  0  0  0
    5.3984   -1.5045   -0.0998 H   0  0  0  0  0  0  0  0  0  0  0  0
    6.2942   -3.4995   -0.4280 H   0  0  0  0  0  0  0  0  0  0  0  0
    7.8820   -2.8322   -0.7372 H   0  0  0  0  0  0  0  0  0  0  0  0
    7.2703   -3.1450    0.9833 H   0  0  0  0  0  0  0  0  0  0  0  0
    8.7300    0.9836   -0.9566 H   0  0  0  0  0  0  0  0  0  0  0  0
    8.0717    0.5014    0.5763 H   0  0  0  0  0  0  0  0  0  0  0  0
   10.2516    0.2158    0.4594 H   0  0  0  0  0  0  0  0  0  0  0  0
   10.4844   -1.4717    1.8628 H   0  0  0  0  0  0  0  0  0  0  0  0
    9.6992   -2.6941    0.8872 H   0  0  0  0  0  0  0  0  0  0  0  0
    8.7532   -1.4612    1.7984 H   0  0  0  0  0  0  0  0  0  0  0  0
   10.4955   -0.0127   -1.7709 H   0  0  0  0  0  0  0  0  0  0  0  0
   11.0480   -2.2126   -2.9025 H   0  0  0  0  0  0  0  0  0  0  0  0
    9.9863   -3.0347   -1.7750 H   0  0  0  0  0  0  0  0  0  0  0  0
    9.3787   -1.6871   -2.7438 H   0  0  0  0  0  0  0  0  0  0  0  0
   12.5446   -1.3901   -1.8377 H   0  0  0  0  0  0  0  0  0  0  0  0
   13.8786   -1.5525   -0.0309 H   0  0  0  0  0  0  0  0  0  0  0  0
   12.6515   -1.4712    1.2400 H   0  0  0  0  0  0  0  0  0  0  0  0
   13.3576   -3.6018   -0.7205 H   0  0  0  0  0  0  0  0  0  0  0  0
   11.6156   -3.5574   -0.1296 H   0  0  0  0  0  0  0  0  0  0  0  0
   12.9802   -3.6414    1.0019 H   0  0  0  0  0  0  0  0  0  0  0  0
   12.2360    0.8561   -2.0110 H   0  0  0  0  0  0  0  0  0  0  0  0
   11.8499    1.1371   -0.3330 H   0  0  0  0  0  0  0  0  0  0  0  0
   14.6083    0.5375   -1.3870 H   0  0  0  0  0  0  0  0  0  0  0  0
   13.0715    2.9101   -0.5124 H   0  0  0  0  0  0  0  0  0  0  0  0
   14.8413    2.8900   -1.1052 H   0  0  0  0  0  0  0  0  0  0  0  0
   13.4757    2.3683   -2.1632 H   0  0  0  0  0  0  0  0  0  0  0  0
   14.2733    0.0906    1.3470 H   0  0  0  0  0  0  0  0  0  0  0  0
   12.4682    2.0396    1.2018 H   0  0  0  0  0  0  0  0  0  0  0  0
   13.4822    1.7020    2.5969 H   0  0  0  0  0  0  0  0  0  0  0  0
   13.9343    3.0242    1.4680 H   0  0  0  0  0  0  0  0  0  0  0  0
   15.8397    2.6064    0.6127 H   0  0  0  0  0  0  0  0  0  0  0  0
   15.9314    0.6683    2.9446 H   0  0  0  0  0  0  0  0  0  0  0  0
   15.2958    2.4117    2.9089 H   0  0  0  0  0  0  0  0  0  0  0  0
   17.7151    2.9247    1.9089 H   0  0  0  0  0  0  0  0  0  0  0  0
   17.3837    2.8782    3.6370 H   0  0  0  0  0  0  0  0  0  0  0  0
   18.1428    1.4421    2.9455 H   0  0  0  0  0  0  0  0  0  0  0  0
   16.8440   -0.2338    1.0770 H   0  0  0  0  0  0  0  0  0  0  0  0
   17.9119    1.1481    0.9538 H   0  0  0  0  0  0  0  0  0  0  0  0
   16.4955   -0.4609   -1.2428 H   0  0  0  0  0  0  0  0  0  0  0  0
   18.1745    1.3925   -2.4760 H   0  0  0  0  0  0  0  0  0  0  0  0
   16.4240    1.3684   -2.6356 H   0  0  0  0  0  0  0  0  0  0  0  0
   17.1997    2.4748   -1.3864 H   0  0  0  0  0  0  0  0  0  0  0  0
   18.7218   -0.6269   -2.0169 H   0  0  0  0  0  0  0  0  0  0  0  0
   19.1441   -2.3637   -0.6060 H   0  0  0  0  0  0  0  0  0  0  0  0
   17.6252   -1.9499    0.1929 H   0  0  0  0  0  0  0  0  0  0  0  0
   19.2289   -1.3291    0.8391 H   0  0  0  0  0  0  0  0  0  0  0  0
   20.5565    0.5352   -1.1303 H   0  0  0  0  0  0  0  0  0  0  0  0
   19.8736    0.5390    0.4986 H   0  0  0  0  0  0  0  0  0  0  0  0
   19.1714    1.6822   -0.7292 H   0  0  0  0  0  0  0  0  0  0  0  0
  1  2  1  0
  1  3  1  0
  3  4  1  0
  4  5  1  0
  4  6  1  0
  6  7  1  0
  6  9  1  0
  7  8  1  0
  9 10  1  0
 10 11  1  0
 10 12  1  0
 12 13  1  0
 12 14  1  0
 14 15  1  0
 14 17  1  0
 15 16  1  0
 17 18  1  0
 18 19  1  0
 18 20  1  0
 20 21  1  0
 20 22  1  0
 22 23  1  0
 22 25  1  0
 23 24  1  0
 25 26  1  0
 26 27  1  0
 26 28  1  0
 28 29  1  0
 28 30  1  0
 30 31  1  0
 30 33  1  0
 31 32  1  0
 33 34  1  0
 34 35  1  0
 34 36  1  0
 36 37  1  0
 36 38  1  0
 38 39  1  0
 38 41  1  0
 39 40  1  0
 41 42  1  0
 42 43  1  0
 42 44  1  0
 44 45  1  0
 44 46  1  0
 46 47  1  0
 46 49  1  0
 47 48  1  0
 49 50  1  0
 50 51  1  0
 50 52  1  0
 52 53  1  0
 52 54  1  0
 54 55  1  0
 54 57  1  0
 55 56  1  0
 57 58  1  0
 58 59  1  0
 58 60  1  0
 60 61  1  0
 60 62  1  0
 62 63  1  0
 62 65  1  0
 63 64  1  0
 65 66  1  0
 66 67  1  0
 66 68  1  0
 68 69  1  0
 68 70  1  0
 70 71  1  0
 70 73  1  0
 71 72  1  0
 73 74  1  0
 74 75  1  0
 74 76  1  0
 76 77  1  0
 76 78  1  0
  1 79  1  0
  1 80  1  0
  2 81  1  0
  2 82  1  0
  2 83  1  0
  3 84  1  0
  3 85  1  0
  4 86  1  0
  5 87  1  0
  5 88  1  0
  5 89  1  0
  6 90  1  0
  7 91  1  0
  7 92  1  0
  8 93  1  0
  8 94  1  0
  8 95  1  0
  9 96  1  0
  9 97  1  0
 10 98  1  0
 11 99  1  0
 11100  1  0
 11101  1  0
 12102  1  0
 13103  1  0
 13104  1  0
 13105  1  0
 14106  1  0
 15107  1  0
 15108  1  0
 16109  1  0
 16110  1  0
 16111  1  0
 17112  1  0
 17113  1  0
 18114  1  0
 19115  1  0
 19116  1  0
 19117  1  0
 20118  1  0
 21119  1  0
 21120  1  0
 21121  1  0
 22122  1  0
 23123  1  0
 23124  1  0
 24125  1  0
 24126  1  0
 24127  1  0
 25128  1  0
 25129  1  0
 26130  1  0
 27131  1  0
 27132  1  0
 27133  1  0
 28134  1  0
 29135  1  0
 29136  1  0
 29137  1  0
 30138  1  0
 31139  1  0
 31140  1  0
 32141  1  0
 32142  1  0
 32143  1  0
 33144  1  0
 33145  1  0
 34146  1  0
 35147  1  0
 35148  1  0
 35149  1  0
 36150  1  0
 37151  1  0
 37152  1  0
 37153  1  0
 38154  1  0
 39155  1  0
 39156  1  0
 40157  1  0
 40158  1  0
 40159  1  0
 41160  1  0
 41161  1  0
 42162  1  0
 43163  1  0
 43164  1  0
 43165  1  0
 44166  1  0
 45167  1  0
 45168  1  0
 45169  1  0
 46170  1  0
 47171  1  0
 47172  1  0
 48173  1  0
 48174  1  0
 48175  1  0
 49176  1  0
 49177  1  0
 50178  1  0
 51179  1  0
 51180  1  0
 51181  1  0
 52182  1  0
 53183  1  0
 53184  1  0
 53185  1  0
 54186  1  0
 55187  1  0
 55188  1  0
 56189  1  0
 56190  1  0
 56191  1  0
 57192  1  0
 57193  1  0
 58194  1  0
 59195  1  0
 59196  1  0
 59197  1  0
 60198  1  0
 61199  1  0
 61200  1  0
 61201  1  0
 62202  1  0
 63203  1  0
 63204  1  0
 64205  1  0
 64206  1  0
 64207  1  0
 65208  1  0
 65209  1  0
 66210  1  0
 67211  1  0
 67212  1  0
 67213  1  0
 68214  1  0
 69215  1  0
 69216  1  0
 69217  1  0
 70218  1  0
 71219  1  0
 71220  1  0
 72221  1  0
 72222  1  0
 72223  1  0
 73224  1  0
 73225  1  0
 74226  1  0
 75227  1  0
 75228  1  0
 75229  1  0
 76230  1  0
 77231  1  0
 77232  1  0
 77233  1  0
 78234  1  0
 78235  1  0
 78236  1  0
M  END

