
     RDKit          3D

188187  0  0  0  0  0  0  0  0999 V2000
   14.6501    1.2434   -0.9483 C   0  0  0  0  0  0  0  0  0  0  0  0
   15.8561    0.4123   -0.4431 C   0  0  0  0  0  0  0  0  0  0  0  0
   13.9516    1.7222    0.2635 C   0  0  0  0  0  0  0  0  0  0  0  0
   12.7414    2.5340    0.1517 C   0  0  0  0  0  0  0  0  0  0  0  0
   13.0089    3.7800   -0.7433 C   0  0  0  0  0  0  0  0  0  0  0  0
   11.3649    2.1648    0.3144 C   0  0  0  0  0  0  0  0  0  0  0  0
   10.6131    3.5628    0.0951 C   0  0  0  0  0  0  0  0  0  0  0  0
    9.1493    3.4305    0.2373 C   0  0  0  0  0  0  0  0  0  0  0  0
   10.5131    1.1414   -0.2433 C   0  0  0  0  0  0  0  0  0  0  0  0
   10.7142   -0.3166   -0.1174 C   0  0  0  0  0  0  0  0  0  0  0  0
   11.9740   -0.7904   -0.7990 C   0  0  0  0  0  0  0  0  0  0  0  0
    9.5994   -1.1487   -0.7191 C   0  0  0  0  0  0  0  0  0  0  0  0
    9.9457   -2.6260   -0.5192 C   0  0  0  0  0  0  0  0  0  0  0  0
    8.2046   -0.8342   -0.1355 C   0  0  0  0  0  0  0  0  0  0  0  0
    8.2670   -1.1388    1.3171 C   0  0  0  0  0  0  0  0  0  0  0  0
    7.0253   -0.9114    2.1213 C   0  0  0  0  0  0  0  0  0  0  0  0
    7.2535   -1.6159   -0.9698 C   0  0  0  0  0  0  0  0  0  0  0  0
    5.7929   -1.4834   -0.7047 C   0  0  0  0  0  0  0  0  0  0  0  0
    5.1326   -2.4648   -1.7067 C   0  0  0  0  0  0  0  0  0  0  0  0
    5.3268   -0.0689   -1.0166 C   0  0  0  0  0  0  0  0  0  0  0  0
    5.4610    0.3353   -2.4278 C   0  0  0  0  0  0  0  0  0  0  0  0
    4.0116    0.3120   -0.3208 C   0  0  0  0  0  0  0  0  0  0  0  0
    3.7726    1.7583   -0.7039 C   0  0  0  0  0  0  0  0  0  0  0  0
    4.9570    2.6305   -0.2458 C   0  0  0  0  0  0  0  0  0  0  0  0
    2.9101   -0.5572   -0.6770 C   0  0  0  0  0  0  0  0  0  0  0  0
    1.5120   -0.4682   -0.1847 C   0  0  0  0  0  0  0  0  0  0  0  0
    0.7750    0.7894   -0.5029 C   0  0  0  0  0  0  0  0  0  0  0  0
    1.3713   -0.9731    1.2189 C   0  0  0  0  0  0  0  0  0  0  0  0
    2.1811   -0.1237    2.2039 C   0  0  0  0  0  0  0  0  0  0  0  0
    0.0280   -1.1640    1.7391 C   0  0  0  0  0  0  0  0  0  0  0  0
    0.0081   -1.6762    3.1901 C   0  0  0  0  0  0  0  0  0  0  0  0
    0.7132   -2.9433    3.4406 C   0  0  0  0  0  0  0  0  0  0  0  0
   -1.1583   -1.5567    1.0071 C   0  0  0  0  0  0  0  0  0  0  0  0
   -1.3700   -2.7841    0.2274 C   0  0  0  0  0  0  0  0  0  0  0  0
   -1.2437   -4.0821    0.9916 C   0  0  0  0  0  0  0  0  0  0  0  0
   -2.5809   -2.7149   -0.6757 C   0  0  0  0  0  0  0  0  0  0  0  0
   -2.4352   -1.5728   -1.6544 C   0  0  0  0  0  0  0  0  0  0  0  0
   -3.9207   -3.0665   -0.2604 C   0  0  0  0  0  0  0  0  0  0  0  0
   -4.1569   -4.5369    0.1390 C   0  0  0  0  0  0  0  0  0  0  0  0
   -3.9240   -5.5083   -0.9590 C   0  0  0  0  0  0  0  0  0  0  0  0
   -4.6625   -2.2663    0.7192 C   0  0  0  0  0  0  0  0  0  0  0  0
   -5.0258   -0.8622    0.5183 C   0  0  0  0  0  0  0  0  0  0  0  0
   -5.7361   -0.4500    1.8794 C   0  0  0  0  0  0  0  0  0  0  0  0
   -5.6802   -0.2806   -0.6021 C   0  0  0  0  0  0  0  0  0  0  0  0
   -5.7739    1.2380   -0.3791 C   0  0  0  0  0  0  0  0  0  0  0  0
   -7.0538   -0.6648   -1.1480 C   0  0  0  0  0  0  0  0  0  0  0  0
   -7.1185   -2.0461   -1.6111 C   0  0  0  0  0  0  0  0  0  0  0  0
   -8.3164   -2.6152   -2.2943 C   0  0  0  0  0  0  0  0  0  0  0  0
   -8.1015    0.0716   -0.4290 C   0  0  0  0  0  0  0  0  0  0  0  0
   -9.5281   -0.1042   -0.6195 C   0  0  0  0  0  0  0  0  0  0  0  0
  -10.0476   -1.4920   -0.2070 C   0  0  0  0  0  0  0  0  0  0  0  0
  -10.4685    0.9338    0.0147 C   0  0  0  0  0  0  0  0  0  0  0  0
  -10.2417    0.9483    1.5243 C   0  0  0  0  0  0  0  0  0  0  0  0
  -10.3062    2.3003   -0.5446 C   0  0  0  0  0  0  0  0  0  0  0  0
  -10.5153    2.3065   -2.0649 C   0  0  0  0  0  0  0  0  0  0  0  0
  -11.8212    1.8128   -2.5421 C   0  0  0  0  0  0  0  0  0  0  0  0
  -10.8579    3.4647    0.1097 C   0  0  0  0  0  0  0  0  0  0  0  0
  -12.1662    3.9170    0.4329 C   0  0  0  0  0  0  0  0  0  0  0  0
  -13.0863    4.1425   -0.7953 C   0  0  0  0  0  0  0  0  0  0  0  0
  -13.0330    3.4088    1.5183 C   0  0  0  0  0  0  0  0  0  0  0  0
  -13.4785    1.9809    1.4593 C   0  0  0  0  0  0  0  0  0  0  0  0
  -14.3382    4.2412    1.5542 C   0  0  0  0  0  0  0  0  0  0  0  0
   14.1839    0.6623   -1.6937 H   0  0  0  0  0  0  0  0  0  0  0  0
   15.1927    2.1537   -1.4021 H   0  0  0  0  0  0  0  0  0  0  0  0
   15.5042   -0.3030    0.3462 H   0  0  0  0  0  0  0  0  0  0  0  0
   16.6661    1.0612   -0.0895 H   0  0  0  0  0  0  0  0  0  0  0  0
   16.2562   -0.2183   -1.2656 H   0  0  0  0  0  0  0  0  0  0  0  0
   14.7876    2.2892    0.8494 H   0  0  0  0  0  0  0  0  0  0  0  0
   13.7540    0.8889    1.0104 H   0  0  0  0  0  0  0  0  0  0  0  0
   12.8893    3.1901    1.2209 H   0  0  0  0  0  0  0  0  0  0  0  0
   14.1142    3.9526   -0.7797 H   0  0  0  0  0  0  0  0  0  0  0  0
   12.5601    4.6860   -0.3367 H   0  0  0  0  0  0  0  0  0  0  0  0
   12.6875    3.6236   -1.7689 H   0  0  0  0  0  0  0  0  0  0  0  0
   11.2222    2.0215    1.4896 H   0  0  0  0  0  0  0  0  0  0  0  0
   11.0517    4.2044    0.8691 H   0  0  0  0  0  0  0  0  0  0  0  0
   10.8696    3.8078   -0.9455 H   0  0  0  0  0  0  0  0  0  0  0  0
    8.6516    4.4501    0.3017 H   0  0  0  0  0  0  0  0  0  0  0  0
    8.8827    2.9001    1.1748 H   0  0  0  0  0  0  0  0  0  0  0  0
    8.7153    2.8728   -0.6116 H   0  0  0  0  0  0  0  0  0  0  0  0
   10.2165    1.3589   -1.3334 H   0  0  0  0  0  0  0  0  0  0  0  0
    9.4694    1.3256    0.2509 H   0  0  0  0  0  0  0  0  0  0  0  0
   10.8273   -0.6324    0.9677 H   0  0  0  0  0  0  0  0  0  0  0  0
   12.8603   -0.8567   -0.1857 H   0  0  0  0  0  0  0  0  0  0  0  0
   11.7949   -1.8003   -1.3055 H   0  0  0  0  0  0  0  0  0  0  0  0
   12.1835   -0.1388   -1.6962 H   0  0  0  0  0  0  0  0  0  0  0  0
    9.5764   -0.9666   -1.8036 H   0  0  0  0  0  0  0  0  0  0  0  0
   10.2195   -3.1192   -1.4727 H   0  0  0  0  0  0  0  0  0  0  0  0
    9.1186   -3.1953   -0.0862 H   0  0  0  0  0  0  0  0  0  0  0  0
   10.8350   -2.7094    0.1658 H   0  0  0  0  0  0  0  0  0  0  0  0
    8.0596    0.2549   -0.2939 H   0  0  0  0  0  0  0  0  0  0  0  0
    9.0258   -0.4134    1.7564 H   0  0  0  0  0  0  0  0  0  0  0  0
    8.7351   -2.1299    1.5426 H   0  0  0  0  0  0  0  0  0  0  0  0
    6.3880   -0.1213    1.7221 H   0  0  0  0  0  0  0  0  0  0  0  0
    6.5167   -1.8842    2.3212 H   0  0  0  0  0  0  0  0  0  0  0  0
    7.2834   -0.5514    3.1677 H   0  0  0  0  0  0  0  0  0  0  0  0
    7.5559   -2.7023   -1.0460 H   0  0  0  0  0  0  0  0  0  0  0  0
    7.4286   -1.2586   -2.0355 H   0  0  0  0  0  0  0  0  0  0  0  0
    5.4324   -1.7530    0.2820 H   0  0  0  0  0  0  0  0  0  0  0  0
    5.9926   -2.9593   -2.2490 H   0  0  0  0  0  0  0  0  0  0  0  0
    4.6461   -3.3106   -1.1779 H   0  0  0  0  0  0  0  0  0  0  0  0
    4.5596   -1.9763   -2.4809 H   0  0  0  0  0  0  0  0  0  0  0  0
    6.1017    0.5712   -0.4611 H   0  0  0  0  0  0  0  0  0  0  0  0
    6.1997    1.1162   -2.5757 H   0  0  0  0  0  0  0  0  0  0  0  0
    4.5315    0.6536   -2.9457 H   0  0  0  0  0  0  0  0  0  0  0  0
    5.8582   -0.5475   -3.0120 H   0  0  0  0  0  0  0  0  0  0  0  0
    4.3060    0.3370    0.7508 H   0  0  0  0  0  0  0  0  0  0  0  0
    2.8534    2.1582   -0.1690 H   0  0  0  0  0  0  0  0  0  0  0  0
    3.6268    1.9486   -1.7624 H   0  0  0  0  0  0  0  0  0  0  0  0
    5.4067    2.1201    0.6257 H   0  0  0  0  0  0  0  0  0  0  0  0
    4.5414    3.5915    0.1802 H   0  0  0  0  0  0  0  0  0  0  0  0
    5.6920    2.8057   -1.0221 H   0  0  0  0  0  0  0  0  0  0  0  0
    2.8778   -0.5706   -1.8325 H   0  0  0  0  0  0  0  0  0  0  0  0
    3.2312   -1.6256   -0.4463 H   0  0  0  0  0  0  0  0  0  0  0  0
    0.9640   -1.2520   -0.8154 H   0  0  0  0  0  0  0  0  0  0  0  0
    1.2220    1.3202   -1.4013 H   0  0  0  0  0  0  0  0  0  0  0  0
   -0.2758    0.6078   -0.9072 H   0  0  0  0  0  0  0  0  0  0  0  0
    0.6534    1.5214    0.2751 H   0  0  0  0  0  0  0  0  0  0  0  0
    1.9798   -1.9529    1.2271 H   0  0  0  0  0  0  0  0  0  0  0  0
    3.1353   -0.5734    2.5048 H   0  0  0  0  0  0  0  0  0  0  0  0
    1.6327    0.0727    3.1497 H   0  0  0  0  0  0  0  0  0  0  0  0
    2.3849    0.8806    1.7914 H   0  0  0  0  0  0  0  0  0  0  0  0
   -0.2433   -0.0204    1.9970 H   0  0  0  0  0  0  0  0  0  0  0  0
   -1.1211   -1.8103    3.3703 H   0  0  0  0  0  0  0  0  0  0  0  0
    0.2760   -0.9306    3.9446 H   0  0  0  0  0  0  0  0  0  0  0  0
   -0.0199   -3.7579    3.6034 H   0  0  0  0  0  0  0  0  0  0  0  0
    1.2802   -2.9197    4.4277 H   0  0  0  0  0  0  0  0  0  0  0  0
    1.3901   -3.2945    2.6319 H   0  0  0  0  0  0  0  0  0  0  0  0
   -1.9510   -1.6606    1.8661 H   0  0  0  0  0  0  0  0  0  0  0  0
   -1.5812   -0.7090    0.3681 H   0  0  0  0  0  0  0  0  0  0  0  0
   -0.5302   -2.8766   -0.5170 H   0  0  0  0  0  0  0  0  0  0  0  0
   -1.6967   -4.0611    1.9736 H   0  0  0  0  0  0  0  0  0  0  0  0
   -1.5350   -4.9403    0.3387 H   0  0  0  0  0  0  0  0  0  0  0  0
   -0.1406   -4.3301    1.1553 H   0  0  0  0  0  0  0  0  0  0  0  0
   -2.3283   -3.6048   -1.3914 H   0  0  0  0  0  0  0  0  0  0  0  0
   -1.3541   -1.4835   -1.9811 H   0  0  0  0  0  0  0  0  0  0  0  0
   -2.9587   -1.8231   -2.6238 H   0  0  0  0  0  0  0  0  0  0  0  0
   -2.6859   -0.5898   -1.2783 H   0  0  0  0  0  0  0  0  0  0  0  0
   -4.5148   -3.0312   -1.2081 H   0  0  0  0  0  0  0  0  0  0  0  0
   -5.2901   -4.5452    0.2961 H   0  0  0  0  0  0  0  0  0  0  0  0
   -3.7694   -4.7912    1.1173 H   0  0  0  0  0  0  0  0  0  0  0  0
   -4.7865   -5.4841   -1.6651 H   0  0  0  0  0  0  0  0  0  0  0  0
   -2.9671   -5.4577   -1.4627 H   0  0  0  0  0  0  0  0  0  0  0  0
   -4.0153   -6.5343   -0.4758 H   0  0  0  0  0  0  0  0  0  0  0  0
   -4.1717   -2.2947    1.7572 H   0  0  0  0  0  0  0  0  0  0  0  0
   -5.6114   -2.8262    0.9912 H   0  0  0  0  0  0  0  0  0  0  0  0
   -4.0573   -0.2738    0.6605 H   0  0  0  0  0  0  0  0  0  0  0  0
   -5.8950    0.6146    1.9269 H   0  0  0  0  0  0  0  0  0  0  0  0
   -4.9490   -0.6446    2.6885 H   0  0  0  0  0  0  0  0  0  0  0  0
   -6.5264   -1.1413    2.1208 H   0  0  0  0  0  0  0  0  0  0  0  0
   -5.0025   -0.3504   -1.5064 H   0  0  0  0  0  0  0  0  0  0  0  0
   -4.7433    1.6171   -0.0927 H   0  0  0  0  0  0  0  0  0  0  0  0
   -6.4335    1.5560    0.4001 H   0  0  0  0  0  0  0  0  0  0  0  0
   -6.0726    1.7258   -1.3414 H   0  0  0  0  0  0  0  0  0  0  0  0
   -7.0144   -0.0610   -2.1633 H   0  0  0  0  0  0  0  0  0  0  0  0
   -6.8529   -2.8050   -0.8131 H   0  0  0  0  0  0  0  0  0  0  0  0
   -6.2966   -2.1315   -2.4222 H   0  0  0  0  0  0  0  0  0  0  0  0
   -8.9578   -1.8611   -2.7779 H   0  0  0  0  0  0  0  0  0  0  0  0
   -7.9760   -3.2294   -3.2281 H   0  0  0  0  0  0  0  0  0  0  0  0
   -8.8483   -3.4135   -1.7344 H   0  0  0  0  0  0  0  0  0  0  0  0
   -7.9010    1.1748   -0.6982 H   0  0  0  0  0  0  0  0  0  0  0  0
   -7.9251    0.0288    0.7023 H   0  0  0  0  0  0  0  0  0  0  0  0
   -9.7471    0.0174   -1.7227 H   0  0  0  0  0  0  0  0  0  0  0  0
  -10.7743   -1.3105    0.6606 H   0  0  0  0  0  0  0  0  0  0  0  0
  -10.6634   -1.9641   -0.9674 H   0  0  0  0  0  0  0  0  0  0  0  0
   -9.2695   -2.1131    0.2655 H   0  0  0  0  0  0  0  0  0  0  0  0
  -11.4717    0.4814   -0.1172 H   0  0  0  0  0  0  0  0  0  0  0  0
  -10.6472    1.9056    1.9065 H   0  0  0  0  0  0  0  0  0  0  0  0
   -9.1981    0.9287    1.8281 H   0  0  0  0  0  0  0  0  0  0  0  0
  -10.8606    0.1658    2.0413 H   0  0  0  0  0  0  0  0  0  0  0  0
   -9.1844    2.4788   -0.4971 H   0  0  0  0  0  0  0  0  0  0  0  0
   -9.7126    1.7882   -2.6134 H   0  0  0  0  0  0  0  0  0  0  0  0
  -10.3450    3.3960   -2.3331 H   0  0  0  0  0  0  0  0  0  0  0  0
  -12.3373    2.6222   -3.1004 H   0  0  0  0  0  0  0  0  0  0  0  0
  -12.5130    1.4685   -1.7640 H   0  0  0  0  0  0  0  0  0  0  0  0
  -11.7117    1.0098   -3.3493 H   0  0  0  0  0  0  0  0  0  0  0  0
  -10.3893    4.3622   -0.5056 H   0  0  0  0  0  0  0  0  0  0  0  0
  -10.2146    3.6268    1.0598 H   0  0  0  0  0  0  0  0  0  0  0  0
  -12.0018    5.0202    0.7577 H   0  0  0  0  0  0  0  0  0  0  0  0
  -13.7544    3.3058   -0.9745 H   0  0  0  0  0  0  0  0  0  0  0  0
  -12.4942    4.5099   -1.6389 H   0  0  0  0  0  0  0  0  0  0  0  0
  -13.7597    4.9837   -0.4980 H   0  0  0  0  0  0  0  0  0  0  0  0
  -12.6066    3.6512    2.5469 H   0  0  0  0  0  0  0  0  0  0  0  0
  -13.4137    1.5481    0.4446 H   0  0  0  0  0  0  0  0  0  0  0  0
  -14.5880    1.9365    1.7603 H   0  0  0  0  0  0  0  0  0  0  0  0
  -12.9306    1.3841    2.1990 H   0  0  0  0  0  0  0  0  0  0  0  0
  -14.8395    3.9647    2.5104 H   0  0  0  0  0  0  0  0  0  0  0  0
  -15.0090    3.9373    0.7322 H   0  0  0  0  0  0  0  0  0  0  0  0
  -14.0604    5.3054    1.5621 H   0  0  0  0  0  0  0  0  0  0  0  0
  1  2  1  0
  1  3  1  0
  3  4  1  0
  4  5  1  0
  4  6  1  0
  6  7  1  0
  6  9  1  0
  7  8  1  0
  9 10  1  0
 10 11  1  0
 10 12  1  0
 12 13  1  0
 12 14  1  0
 14 15  1  0
 14 17  1  0
 15 16  1  0
 17 18  1  0
 18 19  1  0
 18 20  1  0
 20 21  1  0
 20 22  1  0
 22 23  1  0
 22 25  1  0
 23 24  1  0
 25 26  1  0
 26 27  1  0
 26 28  1  0
 28 29  1  0
 28 30  1  0
 30 31  1  0
 30 33  1  0
 31 32  1  0
 33 34  1  0
 34 35  1  0
 34 36  1  0
 36 37  1  0
 36 38  1  0
 38 39  1  0
 38 41  1  0
 39 40  1  0
 41 42  1  0
 42 43  1  0
 42 44  1  0
 44 45  1  0
 44 46  1  0
 46 47  1  0
 46 49  1  0
 47 48  1  0
 49 50  1  0
 50 51  1  0
 50 52  1  0
 52 53  1  0
 52 54  1  0
 54 55  1  0
 54 57  1  0
 55 56  1  0
 57 58  1  0
 58 59  1  0
 58 60  1  0
 60 61  1  0
 60 62  1  0
  1 63  1  0
  1 64  1  0
  2 65  1  0
  2 66  1  0
  2 67  1  0
  3 68  1  0
  3 69  1  0
  4 70  1  0
  5 71  1  0
  5 72  1  0
  5 73  1  0
  6 74  1  0
  7 75  1  0
  7 76  1  0
  8 77  1  0
  8 78  1  0
  8 79  1  0
  9 80  1  0
  9 81  1  0
 10 82  1  0
 11 83  1  0
 11 84  1  0
 11 85  1  0
 12 86  1  0
 13 87  1  0
 13 88  1  0
 13 89  1  0
 14 90  1  0
 15 91  1  0
 15 92  1  0
 16 93  1  0
 16 94  1  0
 16 95  1  0
 17 96  1  0
 17 97  1  0
 18 98  1  0
 19 99  1  0
 19100  1  0
 19101  1  0
 20102  1  0
 21103  1  0
 21104  1  0
 21105  1  0
 22106  1  0
 23107  1  0
 23108  1  0
 24109  1  0
 24110  1  0
 24111  1  0
 25112  1  0
 25113  1  0
 26114  1  0
 27115  1  0
 27116  1  0
 27117  1  0
 28118  1  0
 29119  1  0
 29120  1  0
 29121  1  0
 30122  1  0
 31123  1  0
 31124  1  0
 32125  1  0
 32126  1  0
 32127  1  0
 33128  1  0
 33129  1  0
 34130  1  0
 35131  1  0
 35132  1  0
 35133  1  0
 36134  1  0
 37135  1  0
 37136  1  0
 37137  1  0
 38138  1  0
 39139  1  0
 39140  1  0
 40141  1  0
 40142  1  0
 40143  1  0
 41144  1  0
 41145  1  0
 42146  1  0
 43147  1  0
 43148  1  0
 43149  1  0
 44150  1  0
 45151  1  0
 45152  1  0
 45153  1  0
 46154  1  0
 47155  1  0
 47156  1  0
 48157  1  0
 48158  1  0
 48159  1  0
 49160  1  0
 49161  1  0
 50162  1  0
 51163  1  0
 51164  1  0
 51165  1  0
 52166  1  0
 53167  1  0
 53168  1  0
 53169  1  0
 54170  1  0
 55171  1  0
 55172  1  0
 56173  1  0
 56174  1  0
 56175  1  0
 57176  1  0
 57177  1  0
 58178  1  0
 59179  1  0
 59180  1  0
 59181  1  0
 60182  1  0
 61183  1  0
 61184  1  0
 61185  1  0
 62186  1  0
 62187  1  0
 62188  1  0
M  END

