
     RDKit          3D

 38 37  0  0  0  0  0  0  0  0999 V2000
   -8.5305    4.8799    2.2537 C   0  0  0  0  0  0  0  0  0  0  0  0
   -7.8908    4.4667    1.1928 C   0  0  0  0  0  0  0  0  0  0  0  0
   -6.6225    3.7592    1.3514 C   0  0  0  0  0  0  0  0  0  0  0  0
   -5.8756    3.2980    0.3876 C   0  0  0  0  0  0  0  0  0  0  0  0
   -4.6212    2.5993    0.7134 C   0  0  0  0  0  0  0  0  0  0  0  0
   -3.7987    2.1101   -0.2034 C   0  0  0  0  0  0  0  0  0  0  0  0
   -2.5986    1.4402    0.2243 C   0  0  0  0  0  0  0  0  0  0  0  0
   -1.7316    0.9393   -0.6432 C   0  0  0  0  0  0  0  0  0  0  0  0
   -0.5236    0.2598   -0.1367 C   0  0  0  0  0  0  0  0  0  0  0  0
    0.4053   -0.2675   -0.9090 C   0  0  0  0  0  0  0  0  0  0  0  0
    1.5446   -0.9119   -0.2966 C   0  0  0  0  0  0  0  0  0  0  0  0
    2.5048   -1.4423   -0.9987 C   0  0  0  0  0  0  0  0  0  0  0  0
    3.6396   -2.0907   -0.3523 C   0  0  0  0  0  0  0  0  0  0  0  0
    4.6342   -2.6164   -1.0308 C   0  0  0  0  0  0  0  0  0  0  0  0
    5.7129   -3.2420   -0.2954 C   0  0  0  0  0  0  0  0  0  0  0  0
    6.7802   -3.7880   -0.8695 C   0  0  0  0  0  0  0  0  0  0  0  0
    7.7978   -4.3913   -0.0454 C   0  0  0  0  0  0  0  0  0  0  0  0
    8.9049   -4.9337   -0.5731 C   0  0  0  0  0  0  0  0  0  0  0  0
   -9.4611    5.4074    2.2975 H   0  0  0  0  0  0  0  0  0  0  0  0
   -8.0876    4.6824    3.2386 H   0  0  0  0  0  0  0  0  0  0  0  0
   -8.3220    4.6602    0.2193 H   0  0  0  0  0  0  0  0  0  0  0  0
   -6.2346    3.5889    2.3783 H   0  0  0  0  0  0  0  0  0  0  0  0
   -6.1976    3.4383   -0.6333 H   0  0  0  0  0  0  0  0  0  0  0  0
   -4.3191    2.4677    1.7425 H   0  0  0  0  0  0  0  0  0  0  0  0
   -4.0584    2.2292   -1.2340 H   0  0  0  0  0  0  0  0  0  0  0  0
   -2.3601    1.3201    1.2940 H   0  0  0  0  0  0  0  0  0  0  0  0
   -1.9496    1.0490   -1.6883 H   0  0  0  0  0  0  0  0  0  0  0  0
   -0.3871    0.1926    0.9117 H   0  0  0  0  0  0  0  0  0  0  0  0
    0.3163   -0.2215   -1.9788 H   0  0  0  0  0  0  0  0  0  0  0  0
    1.6423   -0.9786    0.7908 H   0  0  0  0  0  0  0  0  0  0  0  0
    2.4491   -1.4017   -2.0914 H   0  0  0  0  0  0  0  0  0  0  0  0
    3.6431   -2.1333    0.7310 H   0  0  0  0  0  0  0  0  0  0  0  0
    4.6640   -2.5928   -2.1025 H   0  0  0  0  0  0  0  0  0  0  0  0
    5.6857   -3.2869    0.8082 H   0  0  0  0  0  0  0  0  0  0  0  0
    6.8814   -3.7802   -1.9257 H   0  0  0  0  0  0  0  0  0  0  0  0
    7.6980   -4.4248    1.0286 H   0  0  0  0  0  0  0  0  0  0  0  0
    9.6586   -5.3853    0.0440 H   0  0  0  0  0  0  0  0  0  0  0  0
    9.0076   -4.8992   -1.6410 H   0  0  0  0  0  0  0  0  0  0  0  0
  1  2  2  0
  2  3  1  0
  3  4  2  0
  4  5  1  0
  5  6  2  0
  6  7  1  0
  7  8  2  0
  8  9  1  0
  9 10  2  0
 10 11  1  0
 11 12  2  0
 12 13  1  0
 13 14  2  0
 14 15  1  0
 15 16  2  0
 16 17  1  0
 17 18  2  0
  1 19  1  0
  1 20  1  0
  2 21  1  0
  3 22  1  0
  4 23  1  0
  5 24  1  0
  6 25  1  0
  7 26  1  0
  8 27  1  0
  9 28  1  0
 10 29  1  0
 11 30  1  0
 12 31  1  0
 13 32  1  0
 14 33  1  0
 15 34  1  0
 16 35  1  0
 17 36  1  0
 18 37  1  0
 18 38  1  0
M  END

