
     RDKit          3D

 30 29  0  0  0  0  0  0  0  0999 V2000
    4.4551   -4.5929    4.0899 C   0  0  0  0  0  0  0  0  0  0  0  0
    4.4055   -3.5369    3.2566 C   0  0  0  0  0  0  0  0  0  0  0  0
    3.2570   -2.9801    2.7005 C   0  0  0  0  0  0  0  0  0  0  0  0
    2.3197   -2.5187    2.2409 C   0  0  0  0  0  0  0  0  0  0  0  0
    1.1029   -1.9790    1.6965 C   0  0  0  0  0  0  0  0  0  0  0  0
    0.2081   -1.5418    1.2569 C   0  0  0  0  0  0  0  0  0  0  0  0
   -1.0483   -1.0937    0.8038 C   0  0  0  0  0  0  0  0  0  0  0  0
   -0.8394   -0.0146   -0.1183 C   0  0  0  0  0  0  0  0  0  0  0  0
   -1.8613    0.6948   -0.7726 C   0  0  0  0  0  0  0  0  0  0  0  0
   -1.4011    1.6767   -1.5748 C   0  0  0  0  0  0  0  0  0  0  0  0
   -1.9928    2.6698   -2.4472 C   0  0  0  0  0  0  0  0  0  0  0  0
   -2.2803    3.4657   -3.1278 C   0  0  0  0  0  0  0  0  0  0  0  0
   -3.3689    4.1674   -3.8179 C   0  0  0  0  0  0  0  0  0  0  0  0
   -3.3482    5.1254   -4.5605 C   0  0  0  0  0  0  0  0  0  0  0  0
    5.3512   -4.9835    4.5011 H   0  0  0  0  0  0  0  0  0  0  0  0
    3.5259   -5.1002    4.3569 H   0  0  0  0  0  0  0  0  0  0  0  0
    5.4376   -3.1077    3.1104 H   0  0  0  0  0  0  0  0  0  0  0  0
    3.9898   -2.1103    1.8287 H   0  0  0  0  0  0  0  0  0  0  0  0
    1.5372   -3.3279    3.1286 H   0  0  0  0  0  0  0  0  0  0  0  0
    1.8972   -1.1861    0.7943 H   0  0  0  0  0  0  0  0  0  0  0  0
   -0.5019   -2.4838    2.1556 H   0  0  0  0  0  0  0  0  0  0  0  0
   -2.0441   -1.2337    0.7003 H   0  0  0  0  0  0  0  0  0  0  0  0
    0.2069    0.1542   -0.3475 H   0  0  0  0  0  0  0  0  0  0  0  0
   -2.9068    0.7362   -0.8350 H   0  0  0  0  0  0  0  0  0  0  0  0
   -0.2713    1.8247   -1.5949 H   0  0  0  0  0  0  0  0  0  0  0  0
   -3.2751    2.2126   -2.2534 H   0  0  0  0  0  0  0  0  0  0  0  0
   -1.2931    4.1304   -3.3619 H   0  0  0  0  0  0  0  0  0  0  0  0
   -4.3984    3.6820   -3.5856 H   0  0  0  0  0  0  0  0  0  0  0  0
   -4.3557    5.4972   -4.9943 H   0  0  0  0  0  0  0  0  0  0  0  0
   -2.5076    5.7537   -4.9032 H   0  0  0  0  0  0  0  0  0  0  0  0
  1  2  2  0
  2  3  1  0
  3  4  2  0
  4  5  1  0
  5  6  2  0
  6  7  1  0
  7  8  2  0
  8  9  1  0
  9 10  2  0
 10 11  1  0
 11 12  2  0
 12 13  1  0
 13 14  2  0
  1 15  1  0
  1 16  1  0
  2 17  1  0
  3 18  1  0
  4 19  1  0
  5 20  1  0
  6 21  1  0
  7 22  1  0
  8 23  1  0
  9 24  1  0
 10 25  1  0
 11 26  1  0
 12 27  1  0
 13 28  1  0
 14 29  1  0
 14 30  1  0
M  END

