
     RDKit          3D

 34 33  0  0  0  0  0  0  0  0999 V2000
   -8.1334   -2.9242   -0.5391 C   0  0  0  0  0  0  0  0  0  0  0  0
   -7.1085   -3.0650   -0.0136 C   0  0  0  0  0  0  0  0  0  0  0  0
   -5.8376   -3.2490    0.6440 C   0  0  0  0  0  0  0  0  0  0  0  0
   -4.8774   -2.3273    0.4034 C   0  0  0  0  0  0  0  0  0  0  0  0
   -3.5523   -2.2898    0.9685 C   0  0  0  0  0  0  0  0  0  0  0  0
   -2.6875   -1.3717    0.5329 C   0  0  0  0  0  0  0  0  0  0  0  0
   -1.3363   -1.1869    1.0244 C   0  0  0  0  0  0  0  0  0  0  0  0
   -0.5617   -0.3198    0.4262 C   0  0  0  0  0  0  0  0  0  0  0  0
    0.7937   -0.0176    0.8358 C   0  0  0  0  0  0  0  0  0  0  0  0
    1.5533    0.7775    0.1181 C   0  0  0  0  0  0  0  0  0  0  0  0
    2.9060    1.1371    0.4943 C   0  0  0  0  0  0  0  0  0  0  0  0
    3.6385    1.8845   -0.3757 C   0  0  0  0  0  0  0  0  0  0  0  0
    4.9807    2.3281   -0.1006 C   0  0  0  0  0  0  0  0  0  0  0  0
    5.6962    2.9390   -1.0024 C   0  0  0  0  0  0  0  0  0  0  0  0
    7.0840    3.4206   -0.6954 C   0  0  0  0  0  0  0  0  0  0  0  0
    7.8213    3.9155   -1.6442 C   0  0  0  0  0  0  0  0  0  0  0  0
   -9.1286   -3.3519   -0.7141 H   0  0  0  0  0  0  0  0  0  0  0  0
   -8.1901   -1.9002   -1.1810 H   0  0  0  0  0  0  0  0  0  0  0  0
   -7.5409   -4.3031    0.4993 H   0  0  0  0  0  0  0  0  0  0  0  0
   -5.5319   -4.0255    1.3205 H   0  0  0  0  0  0  0  0  0  0  0  0
   -5.2201   -1.5529   -0.3166 H   0  0  0  0  0  0  0  0  0  0  0  0
   -3.1694   -2.9338    1.7430 H   0  0  0  0  0  0  0  0  0  0  0  0
   -3.0219   -0.6938   -0.2623 H   0  0  0  0  0  0  0  0  0  0  0  0
   -0.9612   -1.7607    1.8882 H   0  0  0  0  0  0  0  0  0  0  0  0
   -0.9490    0.2363   -0.4407 H   0  0  0  0  0  0  0  0  0  0  0  0
    1.2237   -0.4466    1.7559 H   0  0  0  0  0  0  0  0  0  0  0  0
    1.1421    1.2059   -0.8064 H   0  0  0  0  0  0  0  0  0  0  0  0
    3.4269    0.8928    1.3901 H   0  0  0  0  0  0  0  0  0  0  0  0
    3.1317    2.1278   -1.2951 H   0  0  0  0  0  0  0  0  0  0  0  0
    5.4530    2.1588    0.8895 H   0  0  0  0  0  0  0  0  0  0  0  0
    5.2941    3.0916   -1.9925 H   0  0  0  0  0  0  0  0  0  0  0  0
    7.4386    3.3651    0.3093 H   0  0  0  0  0  0  0  0  0  0  0  0
    7.4104    3.9646   -2.6419 H   0  0  0  0  0  0  0  0  0  0  0  0
    8.8134    4.2746   -1.4487 H   0  0  0  0  0  0  0  0  0  0  0  0
  1  2  2  0
  2  3  1  0
  3  4  2  0
  4  5  1  0
  5  6  2  0
  6  7  1  0
  7  8  2  0
  8  9  1  0
  9 10  2  0
 10 11  1  0
 11 12  2  0
 12 13  1  0
 13 14  2  0
 14 15  1  0
 15 16  2  0
  1 17  1  0
  1 18  1  0
  2 19  1  0
  3 20  1  0
  4 21  1  0
  5 22  1  0
  6 23  1  0
  7 24  1  0
  8 25  1  0
  9 26  1  0
 10 27  1  0
 11 28  1  0
 12 29  1  0
 13 30  1  0
 14 31  1  0
 15 32  1  0
 16 33  1  0
 16 34  1  0
M  END

