
     RDKit          3D

 26 25  0  0  0  0  0  0  0  0999 V2000
   -6.3122   -0.2357    0.8008 C   0  0  0  0  0  0  0  0  0  0  0  0
   -5.2749   -0.6184    1.0024 C   0  0  0  0  0  0  0  0  0  0  0  0
   -3.9307   -1.1145    1.2637 C   0  0  0  0  0  0  0  0  0  0  0  0
   -2.9224   -0.4684    0.6576 C   0  0  0  0  0  0  0  0  0  0  0  0
   -1.5318   -0.7199    0.7298 C   0  0  0  0  0  0  0  0  0  0  0  0
   -0.6747    0.0425   -0.0078 C   0  0  0  0  0  0  0  0  0  0  0  0
    0.6858   -0.0668   -0.0368 C   0  0  0  0  0  0  0  0  0  0  0  0
    1.9175   -0.1246   -0.1022 C   0  0  0  0  0  0  0  0  0  0  0  0
    3.2898   -0.1893   -0.1748 C   0  0  0  0  0  0  0  0  0  0  0  0
    3.8873    0.6651   -1.0962 C   0  0  0  0  0  0  0  0  0  0  0  0
    5.3186    0.6585   -1.2317 C   0  0  0  0  0  0  0  0  0  0  0  0
    5.9525    1.4382   -2.0870 C   0  0  0  0  0  0  0  0  0  0  0  0
   -7.4066   -0.0299    0.7213 H   0  0  0  0  0  0  0  0  0  0  0  0
   -6.0951    0.8817    0.1105 H   0  0  0  0  0  0  0  0  0  0  0  0
   -5.8241   -1.6874    1.7626 H   0  0  0  0  0  0  0  0  0  0  0  0
   -3.6399   -1.9087    1.8871 H   0  0  0  0  0  0  0  0  0  0  0  0
   -3.3014    0.3629    0.0141 H   0  0  0  0  0  0  0  0  0  0  0  0
   -1.0637   -1.4753    1.3172 H   0  0  0  0  0  0  0  0  0  0  0  0
   -1.2071    0.8088   -0.6229 H   0  0  0  0  0  0  0  0  0  0  0  0
    0.8339    0.9649   -1.0302 H   0  0  0  0  0  0  0  0  0  0  0  0
    1.8278   -1.1546    0.8488 H   0  0  0  0  0  0  0  0  0  0  0  0
    3.9621   -0.8056    0.3843 H   0  0  0  0  0  0  0  0  0  0  0  0
    3.2068    1.2694   -1.6454 H   0  0  0  0  0  0  0  0  0  0  0  0
    5.9343   -0.0132   -0.6095 H   0  0  0  0  0  0  0  0  0  0  0  0
    5.3625    2.0963   -2.6997 H   0  0  0  0  0  0  0  0  0  0  0  0
    7.0056    1.4239   -2.1746 H   0  0  0  0  0  0  0  0  0  0  0  0
  1  2  2  0
  2  3  1  0
  3  4  2  0
  4  5  1  0
  5  6  2  0
  6  7  1  0
  7  8  2  0
  8  9  1  0
  9 10  2  0
 10 11  1  0
 11 12  2  0
  1 13  1  0
  1 14  1  0
  2 15  1  0
  3 16  1  0
  4 17  1  0
  5 18  1  0
  6 19  1  0
  7 20  1  0
  8 21  1  0
  9 22  1  0
 10 23  1  0
 11 24  1  0
 12 25  1  0
 12 26  1  0
M  END

