
     RDKit          3D

 58 57  0  0  0  0  0  0  0  0999 V2000
   14.5800    1.0707   -4.1028 C   0  0  0  0  0  0  0  0  0  0  0  0
   14.1137    0.2630   -3.1351 C   0  0  0  0  0  0  0  0  0  0  0  0
   12.7981    0.3926   -2.7060 C   0  0  0  0  0  0  0  0  0  0  0  0
   12.1687   -0.2926   -1.7151 C   0  0  0  0  0  0  0  0  0  0  0  0
   10.7682    0.1574   -1.5974 C   0  0  0  0  0  0  0  0  0  0  0  0
    9.6225    0.5120   -1.4856 C   0  0  0  0  0  0  0  0  0  0  0  0
    8.3701    0.9352   -1.4053 C   0  0  0  0  0  0  0  0  0  0  0  0
    7.5033    0.4813   -0.4328 C   0  0  0  0  0  0  0  0  0  0  0  0
    6.2018    0.9531   -0.4108 C   0  0  0  0  0  0  0  0  0  0  0  0
    5.1587    0.6934    0.4404 C   0  0  0  0  0  0  0  0  0  0  0  0
    3.9773    1.3374    0.1514 C   0  0  0  0  0  0  0  0  0  0  0  0
    2.7388    1.7030    0.1630 C   0  0  0  0  0  0  0  0  0  0  0  0
    1.4668    2.0816    0.1721 C   0  0  0  0  0  0  0  0  0  0  0  0
    0.4578    1.4438    0.8459 C   0  0  0  0  0  0  0  0  0  0  0  0
   -0.8713    1.9925    0.7352 C   0  0  0  0  0  0  0  0  0  0  0  0
   -1.9293    1.3575    1.2105 C   0  0  0  0  0  0  0  0  0  0  0  0
   -3.2822    1.9481    1.0786 C   0  0  0  0  0  0  0  0  0  0  0  0
   -4.3037    1.2222    1.3843 C   0  0  0  0  0  0  0  0  0  0  0  0
   -5.7456    1.6231    1.3135 C   0  0  0  0  0  0  0  0  0  0  0  0
   -6.6001    0.6686    1.5259 C   0  0  0  0  0  0  0  0  0  0  0  0
   -8.0550    0.7764    1.4973 C   0  0  0  0  0  0  0  0  0  0  0  0
   -8.6840   -0.3796    1.6089 C   0  0  0  0  0  0  0  0  0  0  0  0
  -10.1282   -0.5836    1.5909 C   0  0  0  0  0  0  0  0  0  0  0  0
  -10.5074   -1.8500    1.6245 C   0  0  0  0  0  0  0  0  0  0  0  0
  -11.8995   -2.3244    1.6109 C   0  0  0  0  0  0  0  0  0  0  0  0
  -12.0144   -3.6768    1.6102 C   0  0  0  0  0  0  0  0  0  0  0  0
  -13.2775   -4.3512    1.5871 C   0  0  0  0  0  0  0  0  0  0  0  0
  -13.3769   -5.6514    1.5932 C   0  0  0  0  0  0  0  0  0  0  0  0
   15.6304    0.9387   -4.4033 H   0  0  0  0  0  0  0  0  0  0  0  0
   14.0484    1.8238   -4.5947 H   0  0  0  0  0  0  0  0  0  0  0  0
   14.8692   -0.4473   -2.7749 H   0  0  0  0  0  0  0  0  0  0  0  0
   12.1496    1.1634   -3.2092 H   0  0  0  0  0  0  0  0  0  0  0  0
   12.6852   -1.0374   -1.1858 H   0  0  0  0  0  0  0  0  0  0  0  0
   10.5925   -0.6438   -0.4875 H   0  0  0  0  0  0  0  0  0  0  0  0
    9.8939    1.2778   -2.6663 H   0  0  0  0  0  0  0  0  0  0  0  0
    7.8671    1.6747   -2.0624 H   0  0  0  0  0  0  0  0  0  0  0  0
    7.9048   -0.2603    0.2787 H   0  0  0  0  0  0  0  0  0  0  0  0
    5.8401    1.6766   -1.2250 H   0  0  0  0  0  0  0  0  0  0  0  0
    5.5275    0.2567    1.3149 H   0  0  0  0  0  0  0  0  0  0  0  0
    3.2782    0.0460    0.4642 H   0  0  0  0  0  0  0  0  0  0  0  0
    3.2389    2.9039   -0.3692 H   0  0  0  0  0  0  0  0  0  0  0  0
    1.0596    2.9562   -0.4001 H   0  0  0  0  0  0  0  0  0  0  0  0
    0.7442    0.6228    1.4145 H   0  0  0  0  0  0  0  0  0  0  0  0
   -1.0700    2.9342    0.2073 H   0  0  0  0  0  0  0  0  0  0  0  0
   -1.7971    0.4451    1.6684 H   0  0  0  0  0  0  0  0  0  0  0  0
   -3.4360    2.9470    0.7355 H   0  0  0  0  0  0  0  0  0  0  0  0
   -4.0504    0.1908    1.7214 H   0  0  0  0  0  0  0  0  0  0  0  0
   -6.0902    2.5938    1.1094 H   0  0  0  0  0  0  0  0  0  0  0  0
   -6.1581   -0.3058    1.7496 H   0  0  0  0  0  0  0  0  0  0  0  0
   -8.6410    1.6622    1.4298 H   0  0  0  0  0  0  0  0  0  0  0  0
   -8.0423   -1.2686    1.7441 H   0  0  0  0  0  0  0  0  0  0  0  0
  -10.8147    0.1978    1.5316 H   0  0  0  0  0  0  0  0  0  0  0  0
   -9.7156   -2.5832    1.6834 H   0  0  0  0  0  0  0  0  0  0  0  0
  -12.7627   -1.7492    1.6053 H   0  0  0  0  0  0  0  0  0  0  0  0
  -11.1066   -4.2825    1.5744 H   0  0  0  0  0  0  0  0  0  0  0  0
  -14.2157   -3.7883    1.5992 H   0  0  0  0  0  0  0  0  0  0  0  0
  -12.4157   -6.1930    1.6093 H   0  0  0  0  0  0  0  0  0  0  0  0
  -14.2643   -6.2554    1.5576 H   0  0  0  0  0  0  0  0  0  0  0  0
  1  2  2  0
  2  3  1  0
  3  4  2  0
  4  5  1  0
  5  6  2  0
  6  7  1  0
  7  8  2  0
  8  9  1  0
  9 10  2  0
 10 11  1  0
 11 12  2  0
 12 13  1  0
 13 14  2  0
 14 15  1  0
 15 16  2  0
 16 17  1  0
 17 18  2  0
 18 19  1  0
 19 20  2  0
 20 21  1  0
 21 22  2  0
 22 23  1  0
 23 24  2  0
 24 25  1  0
 25 26  2  0
 26 27  1  0
 27 28  2  0
  1 29  1  0
  1 30  1  0
  2 31  1  0
  3 32  1  0
  4 33  1  0
  5 34  1  0
  6 35  1  0
  7 36  1  0
  8 37  1  0
  9 38  1  0
 10 39  1  0
 11 40  1  0
 12 41  1  0
 13 42  1  0
 14 43  1  0
 15 44  1  0
 16 45  1  0
 17 46  1  0
 18 47  1  0
 19 48  1  0
 20 49  1  0
 21 50  1  0
 22 51  1  0
 23 52  1  0
 24 53  1  0
 25 54  1  0
 26 55  1  0
 27 56  1  0
 28 57  1  0
 28 58  1  0
M  END

