
     RDKit          3D

 50 49  0  0  0  0  0  0  0  0999 V2000
   13.5136    2.9067   -1.0142 C   0  0  0  0  0  0  0  0  0  0  0  0
   12.5068    2.0774   -1.0868 C   0  0  0  0  0  0  0  0  0  0  0  0
   11.1637    2.5399   -0.7965 C   0  0  0  0  0  0  0  0  0  0  0  0
   10.1413    1.7173   -0.8677 C   0  0  0  0  0  0  0  0  0  0  0  0
    8.7588    2.1150   -0.5878 C   0  0  0  0  0  0  0  0  0  0  0  0
    7.7871    1.2384   -0.6811 C   0  0  0  0  0  0  0  0  0  0  0  0
    6.4146    1.6030   -0.4104 C   0  0  0  0  0  0  0  0  0  0  0  0
    5.4051    0.7654   -0.4915 C   0  0  0  0  0  0  0  0  0  0  0  0
    4.0666    1.2240   -0.2011 C   0  0  0  0  0  0  0  0  0  0  0  0
    3.0185    0.4188   -0.2711 C   0  0  0  0  0  0  0  0  0  0  0  0
    1.6626    0.8494    0.0150 C   0  0  0  0  0  0  0  0  0  0  0  0
    0.6417    0.0246   -0.0652 C   0  0  0  0  0  0  0  0  0  0  0  0
   -0.7315    0.4137    0.2128 C   0  0  0  0  0  0  0  0  0  0  0  0
   -1.7458   -0.4172    0.1289 C   0  0  0  0  0  0  0  0  0  0  0  0
   -3.1272    0.0003    0.4159 C   0  0  0  0  0  0  0  0  0  0  0  0
   -4.0893   -0.9043    0.3054 C   0  0  0  0  0  0  0  0  0  0  0  0
   -5.4824   -0.5712    0.5723 C   0  0  0  0  0  0  0  0  0  0  0  0
   -6.3956   -1.5173    0.4440 C   0  0  0  0  0  0  0  0  0  0  0  0
   -7.8240   -1.2394    0.7014 C   0  0  0  0  0  0  0  0  0  0  0  0
   -8.7390   -2.1815    0.5737 C   0  0  0  0  0  0  0  0  0  0  0  0
  -10.1533   -1.9479    0.8179 C   0  0  0  0  0  0  0  0  0  0  0  0
  -11.0572   -2.8950    0.6867 C   0  0  0  0  0  0  0  0  0  0  0  0
  -12.4882   -2.6594    0.9337 C   0  0  0  0  0  0  0  0  0  0  0  0
  -13.3724   -3.6246    0.7945 C   0  0  0  0  0  0  0  0  0  0  0  0
   13.3595    3.9342   -0.7408 H   0  0  0  0  0  0  0  0  0  0  0  0
   14.5085    2.5598   -1.2271 H   0  0  0  0  0  0  0  0  0  0  0  0
   12.6624    1.0502   -1.3608 H   0  0  0  0  0  0  0  0  0  0  0  0
   10.9945    3.5530   -0.5225 H   0  0  0  0  0  0  0  0  0  0  0  0
   10.3414    0.6881   -1.1500 H   0  0  0  0  0  0  0  0  0  0  0  0
    8.5203    3.1274   -0.3027 H   0  0  0  0  0  0  0  0  0  0  0  0
    8.0376    0.2275   -0.9672 H   0  0  0  0  0  0  0  0  0  0  0  0
    6.2283    2.6513   -0.1207 H   0  0  0  0  0  0  0  0  0  0  0  0
    5.5748   -0.2497   -0.7708 H   0  0  0  0  0  0  0  0  0  0  0  0
    3.8747    2.2644    0.0894 H   0  0  0  0  0  0  0  0  0  0  0  0
    3.2495   -0.6156   -0.5653 H   0  0  0  0  0  0  0  0  0  0  0  0
    1.4728    1.8680    0.3015 H   0  0  0  0  0  0  0  0  0  0  0  0
    0.8397   -0.9975   -0.3542 H   0  0  0  0  0  0  0  0  0  0  0  0
   -0.9251    1.4352    0.5018 H   0  0  0  0  0  0  0  0  0  0  0  0
   -1.5188   -1.4295   -0.1628 H   0  0  0  0  0  0  0  0  0  0  0  0
   -3.3756    0.9912    0.7052 H   0  0  0  0  0  0  0  0  0  0  0  0
   -3.8080   -1.8970    0.0106 H   0  0  0  0  0  0  0  0  0  0  0  0
   -5.7998    0.4080    0.8690 H   0  0  0  0  0  0  0  0  0  0  0  0
   -6.1295   -2.5163    0.1489 H   0  0  0  0  0  0  0  0  0  0  0  0
   -8.1502   -0.2607    0.9997 H   0  0  0  0  0  0  0  0  0  0  0  0
   -8.4140   -3.1640    0.2753 H   0  0  0  0  0  0  0  0  0  0  0  0
  -10.4540   -0.9574    1.1161 H   0  0  0  0  0  0  0  0  0  0  0  0
  -10.7340   -3.8847    0.3850 H   0  0  0  0  0  0  0  0  0  0  0  0
  -12.7637   -1.6584    1.2327 H   0  0  0  0  0  0  0  0  0  0  0  0
  -14.3946   -3.4116    0.9827 H   0  0  0  0  0  0  0  0  0  0  0  0
  -13.0711   -4.6047    0.4980 H   0  0  0  0  0  0  0  0  0  0  0  0
  1  2  2  0
  2  3  1  0
  3  4  2  0
  4  5  1  0
  5  6  2  0
  6  7  1  0
  7  8  2  0
  8  9  1  0
  9 10  2  0
 10 11  1  0
 11 12  2  0
 12 13  1  0
 13 14  2  0
 14 15  1  0
 15 16  2  0
 16 17  1  0
 17 18  2  0
 18 19  1  0
 19 20  2  0
 20 21  1  0
 21 22  2  0
 22 23  1  0
 23 24  2  0
  1 25  1  0
  1 26  1  0
  2 27  1  0
  3 28  1  0
  4 29  1  0
  5 30  1  0
  6 31  1  0
  7 32  1  0
  8 33  1  0
  9 34  1  0
 10 35  1  0
 11 36  1  0
 12 37  1  0
 13 38  1  0
 14 39  1  0
 15 40  1  0
 16 41  1  0
 17 42  1  0
 18 43  1  0
 19 44  1  0
 20 45  1  0
 21 46  1  0
 22 47  1  0
 23 48  1  0
 24 49  1  0
 24 50  1  0
M  END

