
     RDKit          3D

 70 69  0  0  0  0  0  0  0  0999 V2000
    8.7619    2.6323    6.3432 C   0  0  0  0  0  0  0  0  0  0  0  0
    9.3684    3.1018    5.1946 C   0  0  0  0  0  0  0  0  0  0  0  0
    9.1554    2.3479    4.0058 C   0  0  0  0  0  0  0  0  0  0  0  0
    9.6400    2.6517    2.7889 C   0  0  0  0  0  0  0  0  0  0  0  0
    9.3344    1.7758    1.6941 C   0  0  0  0  0  0  0  0  0  0  0  0
    9.7124    1.9217    0.4497 C   0  0  0  0  0  0  0  0  0  0  0  0
    9.2347    0.8561   -0.4769 C   0  0  0  0  0  0  0  0  0  0  0  0
    9.4997    0.8143   -1.7910 C   0  0  0  0  0  0  0  0  0  0  0  0
    8.8584   -0.1899   -2.4817 C   0  0  0  0  0  0  0  0  0  0  0  0
    8.6855   -0.9744   -3.5450 C   0  0  0  0  0  0  0  0  0  0  0  0
    7.5534   -1.8187   -3.4880 C   0  0  0  0  0  0  0  0  0  0  0  0
    6.5781   -2.6084   -3.4999 C   0  0  0  0  0  0  0  0  0  0  0  0
    5.5249   -2.4127   -2.5409 C   0  0  0  0  0  0  0  0  0  0  0  0
    4.3348   -2.7721   -2.1646 C   0  0  0  0  0  0  0  0  0  0  0  0
    3.8077   -2.1065   -0.9925 C   0  0  0  0  0  0  0  0  0  0  0  0
    2.6103   -2.0698   -0.5725 C   0  0  0  0  0  0  0  0  0  0  0  0
    2.3028   -1.3006    0.6629 C   0  0  0  0  0  0  0  0  0  0  0  0
    1.0966   -1.0285    0.9631 C   0  0  0  0  0  0  0  0  0  0  0  0
    0.6143   -0.2107    2.0859 C   0  0  0  0  0  0  0  0  0  0  0  0
   -0.6328    0.0152    2.1955 C   0  0  0  0  0  0  0  0  0  0  0  0
   -1.7378    0.5717    2.7911 C   0  0  0  0  0  0  0  0  0  0  0  0
   -2.9278    0.4073    2.2949 C   0  0  0  0  0  0  0  0  0  0  0  0
   -4.2545    0.7533    2.5199 C   0  0  0  0  0  0  0  0  0  0  0  0
   -5.1463    0.3710    1.6198 C   0  0  0  0  0  0  0  0  0  0  0  0
   -6.5480    0.6835    1.6744 C   0  0  0  0  0  0  0  0  0  0  0  0
   -7.2661    0.2664    0.6529 C   0  0  0  0  0  0  0  0  0  0  0  0
   -8.6912    0.4960    0.5436 C   0  0  0  0  0  0  0  0  0  0  0  0
   -9.2816    0.0674   -0.5322 C   0  0  0  0  0  0  0  0  0  0  0  0
  -10.6295    0.2147   -0.8366 C   0  0  0  0  0  0  0  0  0  0  0  0
  -11.5640    0.0156   -1.6142 C   0  0  0  0  0  0  0  0  0  0  0  0
  -12.6494   -0.1604   -2.4007 C   0  0  0  0  0  0  0  0  0  0  0  0
  -12.8188   -0.7667   -3.5501 C   0  0  0  0  0  0  0  0  0  0  0  0
  -14.1043   -0.7817   -4.1882 C   0  0  0  0  0  0  0  0  0  0  0  0
  -14.2670   -1.3820   -5.3080 C   0  0  0  0  0  0  0  0  0  0  0  0
    8.1873    1.7221    6.2076 H   0  0  0  0  0  0  0  0  0  0  0  0
    8.8481    3.1139    7.2789 H   0  0  0  0  0  0  0  0  0  0  0  0
    9.9395    3.9863    5.2717 H   0  0  0  0  0  0  0  0  0  0  0  0
    8.5631    1.4311    4.0377 H   0  0  0  0  0  0  0  0  0  0  0  0
   10.2136    3.5353    2.7074 H   0  0  0  0  0  0  0  0  0  0  0  0
    8.7117    0.8804    1.9299 H   0  0  0  0  0  0  0  0  0  0  0  0
   10.2800    2.7575    0.1983 H   0  0  0  0  0  0  0  0  0  0  0  0
    8.6743    0.0776   -0.0175 H   0  0  0  0  0  0  0  0  0  0  0  0
   10.1857    1.5576   -2.1296 H   0  0  0  0  0  0  0  0  0  0  0  0
    7.9364   -0.5671   -1.7619 H   0  0  0  0  0  0  0  0  0  0  0  0
    9.4770   -0.7954   -4.2143 H   0  0  0  0  0  0  0  0  0  0  0  0
    6.6865   -0.7451   -3.2968 H   0  0  0  0  0  0  0  0  0  0  0  0
    6.6725   -3.3310   -4.2326 H   0  0  0  0  0  0  0  0  0  0  0  0
    5.8806   -1.6473   -1.6773 H   0  0  0  0  0  0  0  0  0  0  0  0
    3.9171   -3.4996   -2.7919 H   0  0  0  0  0  0  0  0  0  0  0  0
    4.5356   -1.5201   -0.3384 H   0  0  0  0  0  0  0  0  0  0  0  0
    1.8003   -2.5276   -1.1255 H   0  0  0  0  0  0  0  0  0  0  0  0
    3.1286   -0.9499    1.2553 H   0  0  0  0  0  0  0  0  0  0  0  0
    0.2877   -1.4980    0.2997 H   0  0  0  0  0  0  0  0  0  0  0  0
    1.1670    0.2803    2.8374 H   0  0  0  0  0  0  0  0  0  0  0  0
   -1.0948   -0.9107    1.4545 H   0  0  0  0  0  0  0  0  0  0  0  0
   -1.8063    1.2317    3.7060 H   0  0  0  0  0  0  0  0  0  0  0  0
   -2.7941   -0.2392    1.3077 H   0  0  0  0  0  0  0  0  0  0  0  0
   -4.5968    1.2993    3.3957 H   0  0  0  0  0  0  0  0  0  0  0  0
   -4.7617   -0.2322    0.7949 H   0  0  0  0  0  0  0  0  0  0  0  0
   -7.0635    1.2106    2.4573 H   0  0  0  0  0  0  0  0  0  0  0  0
   -6.6995   -0.2689   -0.1333 H   0  0  0  0  0  0  0  0  0  0  0  0
   -9.2428    1.0177    1.3154 H   0  0  0  0  0  0  0  0  0  0  0  0
   -8.6494   -0.4590   -1.2571 H   0  0  0  0  0  0  0  0  0  0  0  0
  -11.0687    1.1612   -0.1737 H   0  0  0  0  0  0  0  0  0  0  0  0
  -12.3610   -0.2564   -0.4223 H   0  0  0  0  0  0  0  0  0  0  0  0
  -13.6562    0.3196   -2.0612 H   0  0  0  0  0  0  0  0  0  0  0  0
  -11.9438   -1.2300   -4.0185 H   0  0  0  0  0  0  0  0  0  0  0  0
  -14.9811   -0.2459   -3.7588 H   0  0  0  0  0  0  0  0  0  0  0  0
  -13.3564   -1.8809   -5.7053 H   0  0  0  0  0  0  0  0  0  0  0  0
  -15.1713   -1.4190   -5.8368 H   0  0  0  0  0  0  0  0  0  0  0  0
  1  2  2  0
  2  3  1  0
  3  4  2  0
  4  5  1  0
  5  6  2  0
  6  7  1  0
  7  8  2  0
  8  9  1  0
  9 10  2  0
 10 11  1  0
 11 12  2  0
 12 13  1  0
 13 14  2  0
 14 15  1  0
 15 16  2  0
 16 17  1  0
 17 18  2  0
 18 19  1  0
 19 20  2  0
 20 21  1  0
 21 22  2  0
 22 23  1  0
 23 24  2  0
 24 25  1  0
 25 26  2  0
 26 27  1  0
 27 28  2  0
 28 29  1  0
 29 30  2  0
 30 31  1  0
 31 32  2  0
 32 33  1  0
 33 34  2  0
  1 35  1  0
  1 36  1  0
  2 37  1  0
  3 38  1  0
  4 39  1  0
  5 40  1  0
  6 41  1  0
  7 42  1  0
  8 43  1  0
  9 44  1  0
 10 45  1  0
 11 46  1  0
 12 47  1  0
 13 48  1  0
 14 49  1  0
 15 50  1  0
 16 51  1  0
 17 52  1  0
 18 53  1  0
 19 54  1  0
 20 55  1  0
 21 56  1  0
 22 57  1  0
 23 58  1  0
 24 59  1  0
 25 60  1  0
 26 61  1  0
 27 62  1  0
 28 63  1  0
 29 64  1  0
 30 65  1  0
 31 66  1  0
 32 67  1  0
 33 68  1  0
 34 69  1  0
 34 70  1  0
M  END

