
     RDKit          3D

 10  9  0  0  0  0  0  0  0  0999 V2000
   -1.7863    0.1324    0.0985 C   0  0  0  0  0  0  0  0  0  0  0  0
   -0.5293    0.4884    0.0337 C   0  0  0  0  0  0  0  0  0  0  0  0
    0.5070   -0.4868    0.3406 C   0  0  0  0  0  0  0  0  0  0  0  0
    1.7669   -0.1552    0.2828 C   0  0  0  0  0  0  0  0  0  0  0  0
   -2.0507   -0.8631    0.3736 H   0  0  0  0  0  0  0  0  0  0  0  0
   -2.5474    0.8471   -0.1265 H   0  0  0  0  0  0  0  0  0  0  0  0
   -0.2482    1.5003   -0.2456 H   0  0  0  0  0  0  0  0  0  0  0  0
    0.2605   -1.4943    0.6196 H   0  0  0  0  0  0  0  0  0  0  0  0
    2.5699   -0.8308    0.4979 H   0  0  0  0  0  0  0  0  0  0  0  0
    2.0576    0.8620    0.0023 H   0  0  0  0  0  0  0  0  0  0  0  0
  1  2  2  3
  2  3  1  0
  3  4  2  3
  1  5  1  0
  1  6  1  0
  2  7  1  0
  3  8  1  0
  4  9  1  0
  4 10  1  0
M  END

