
     RDKit          3D

 94 93  0  0  0  0  0  0  0  0999 V2000
   16.3367   -6.3274   -1.4896 C   0  0  0  0  0  0  0  0  0  0  0  0
   16.1706   -5.1700   -0.7156 C   0  0  0  0  0  0  0  0  0  0  0  0
   15.2856   -4.1940   -1.0609 C   0  0  0  0  0  0  0  0  0  0  0  0
   14.9554   -2.9810   -0.5017 C   0  0  0  0  0  0  0  0  0  0  0  0
   14.0984   -1.9876   -0.7715 C   0  0  0  0  0  0  0  0  0  0  0  0
   13.6700   -1.1841    0.2902 C   0  0  0  0  0  0  0  0  0  0  0  0
   12.8524   -0.0305    0.1927 C   0  0  0  0  0  0  0  0  0  0  0  0
   12.0276    0.3454    1.1986 C   0  0  0  0  0  0  0  0  0  0  0  0
   11.2674    1.5872    1.0589 C   0  0  0  0  0  0  0  0  0  0  0  0
   10.0846    1.9552    1.5398 C   0  0  0  0  0  0  0  0  0  0  0  0
    9.7322    3.3391    1.1223 C   0  0  0  0  0  0  0  0  0  0  0  0
    8.5687    3.8743    0.9949 C   0  0  0  0  0  0  0  0  0  0  0  0
    8.5678    5.3601    0.5283 C   0  0  0  0  0  0  0  0  0  0  0  0
    7.5330    5.6699   -0.1530 C   0  0  0  0  0  0  0  0  0  0  0  0
    6.9356    6.7795   -0.7898 C   0  0  0  0  0  0  0  0  0  0  0  0
    5.9684    6.4760   -1.6929 C   0  0  0  0  0  0  0  0  0  0  0  0
    4.9630    6.5546   -2.6405 C   0  0  0  0  0  0  0  0  0  0  0  0
    4.3630    5.4419   -3.0804 C   0  0  0  0  0  0  0  0  0  0  0  0
    3.3452    5.1735   -4.0075 C   0  0  0  0  0  0  0  0  0  0  0  0
    3.0463    3.7751   -3.9420 C   0  0  0  0  0  0  0  0  0  0  0  0
    1.9522    3.4226   -4.8793 C   0  0  0  0  0  0  0  0  0  0  0  0
    1.2723    2.3425   -4.7538 C   0  0  0  0  0  0  0  0  0  0  0  0
    0.1702    1.8692   -5.6302 C   0  0  0  0  0  0  0  0  0  0  0  0
   -0.6650    1.0614   -4.8885 C   0  0  0  0  0  0  0  0  0  0  0  0
   -1.7996    0.2779   -4.7472 C   0  0  0  0  0  0  0  0  0  0  0  0
   -2.0699    0.1007   -3.4199 C   0  0  0  0  0  0  0  0  0  0  0  0
   -2.9071   -0.3861   -2.4305 C   0  0  0  0  0  0  0  0  0  0  0  0
   -2.3848   -0.4837   -1.1648 C   0  0  0  0  0  0  0  0  0  0  0  0
   -3.2092   -0.7837   -0.0968 C   0  0  0  0  0  0  0  0  0  0  0  0
   -3.0206   -1.2006    1.1925 C   0  0  0  0  0  0  0  0  0  0  0  0
   -4.2371   -1.2484    1.8824 C   0  0  0  0  0  0  0  0  0  0  0  0
   -4.5556   -1.8313    3.0999 C   0  0  0  0  0  0  0  0  0  0  0  0
   -5.8848   -1.5869    3.4732 C   0  0  0  0  0  0  0  0  0  0  0  0
   -6.8297   -1.9997    4.2050 C   0  0  0  0  0  0  0  0  0  0  0  0
   -8.0891   -1.1918    4.1549 C   0  0  0  0  0  0  0  0  0  0  0  0
   -9.2189   -1.5658    4.4147 C   0  0  0  0  0  0  0  0  0  0  0  0
  -10.5334   -0.7695    4.4817 C   0  0  0  0  0  0  0  0  0  0  0  0
  -11.5728   -1.4651    4.2715 C   0  0  0  0  0  0  0  0  0  0  0  0
  -13.0036   -1.0695    4.3193 C   0  0  0  0  0  0  0  0  0  0  0  0
  -13.7773   -1.9422    3.6515 C   0  0  0  0  0  0  0  0  0  0  0  0
  -15.1657   -2.0324    3.4493 C   0  0  0  0  0  0  0  0  0  0  0  0
  -15.5573   -2.8900    2.5289 C   0  0  0  0  0  0  0  0  0  0  0  0
  -16.8170   -3.3230    2.0267 C   0  0  0  0  0  0  0  0  0  0  0  0
  -16.7131   -4.0654    0.9271 C   0  0  0  0  0  0  0  0  0  0  0  0
  -17.7695   -4.6889    0.2220 C   0  0  0  0  0  0  0  0  0  0  0  0
  -17.4581   -5.3030   -0.9866 C   0  0  0  0  0  0  0  0  0  0  0  0
   17.0602   -6.9188   -1.0152 H   0  0  0  0  0  0  0  0  0  0  0  0
   15.7619   -6.4031   -2.2743 H   0  0  0  0  0  0  0  0  0  0  0  0
   16.8123   -5.1116    0.1767 H   0  0  0  0  0  0  0  0  0  0  0  0
   14.6345   -4.2741   -2.0178 H   0  0  0  0  0  0  0  0  0  0  0  0
   15.7134   -2.8308    0.3720 H   0  0  0  0  0  0  0  0  0  0  0  0
   13.6770   -1.7014   -1.7733 H   0  0  0  0  0  0  0  0  0  0  0  0
   14.0551   -1.5733    1.2433 H   0  0  0  0  0  0  0  0  0  0  0  0
   12.9018    0.6510   -0.6402 H   0  0  0  0  0  0  0  0  0  0  0  0
   11.9583   -0.2484    2.0257 H   0  0  0  0  0  0  0  0  0  0  0  0
   11.6864    2.4200    0.4241 H   0  0  0  0  0  0  0  0  0  0  0  0
    9.6217    1.3085    2.1073 H   0  0  0  0  0  0  0  0  0  0  0  0
   10.5926    4.0334    0.9646 H   0  0  0  0  0  0  0  0  0  0  0  0
    7.6734    3.4525    1.2435 H   0  0  0  0  0  0  0  0  0  0  0  0
    9.2669    6.0295    0.8077 H   0  0  0  0  0  0  0  0  0  0  0  0
    6.8197    4.7005   -0.1679 H   0  0  0  0  0  0  0  0  0  0  0  0
    6.9384    7.8204   -0.7576 H   0  0  0  0  0  0  0  0  0  0  0  0
    6.5130    5.3503   -1.9641 H   0  0  0  0  0  0  0  0  0  0  0  0
    4.5289    7.4930   -3.0639 H   0  0  0  0  0  0  0  0  0  0  0  0
    4.8101    4.5594   -2.5544 H   0  0  0  0  0  0  0  0  0  0  0  0
    2.7715    5.6628   -4.7025 H   0  0  0  0  0  0  0  0  0  0  0  0
    3.4229    3.0847   -3.3553 H   0  0  0  0  0  0  0  0  0  0  0  0
    1.6349    4.0698   -5.7219 H   0  0  0  0  0  0  0  0  0  0  0  0
    1.6346    1.6250   -3.9344 H   0  0  0  0  0  0  0  0  0  0  0  0
   -0.1812    1.8766   -6.6039 H   0  0  0  0  0  0  0  0  0  0  0  0
    0.1271    0.7503   -3.9878 H   0  0  0  0  0  0  0  0  0  0  0  0
   -2.5025   -0.2703   -5.3058 H   0  0  0  0  0  0  0  0  0  0  0  0
   -1.2345    0.7774   -2.8075 H   0  0  0  0  0  0  0  0  0  0  0  0
   -3.9380   -0.6445   -2.6043 H   0  0  0  0  0  0  0  0  0  0  0  0
   -1.3069   -0.3432   -1.0230 H   0  0  0  0  0  0  0  0  0  0  0  0
   -4.3287   -0.6274   -0.3041 H   0  0  0  0  0  0  0  0  0  0  0  0
   -2.0358   -1.4493    1.4146 H   0  0  0  0  0  0  0  0  0  0  0  0
   -5.1768   -0.8198    1.4320 H   0  0  0  0  0  0  0  0  0  0  0  0
   -3.7600   -2.3753    3.5353 H   0  0  0  0  0  0  0  0  0  0  0  0
   -6.1480   -0.4781    3.0999 H   0  0  0  0  0  0  0  0  0  0  0  0
   -6.7475   -2.8115    4.8098 H   0  0  0  0  0  0  0  0  0  0  0  0
   -7.9919   -0.1197    3.9223 H   0  0  0  0  0  0  0  0  0  0  0  0
   -9.3749   -2.6495    4.6351 H   0  0  0  0  0  0  0  0  0  0  0  0
  -10.5766    0.2736    4.6620 H   0  0  0  0  0  0  0  0  0  0  0  0
  -11.3255   -2.5612    3.9228 H   0  0  0  0  0  0  0  0  0  0  0  0
  -13.4397   -0.2545    4.7540 H   0  0  0  0  0  0  0  0  0  0  0  0
  -13.1091   -2.7636    3.1168 H   0  0  0  0  0  0  0  0  0  0  0  0
  -15.9049   -1.4093    3.9929 H   0  0  0  0  0  0  0  0  0  0  0  0
  -14.6470   -3.3757    1.9723 H   0  0  0  0  0  0  0  0  0  0  0  0
  -17.7695   -3.0557    2.3948 H   0  0  0  0  0  0  0  0  0  0  0  0
  -15.6568   -4.1830    0.5081 H   0  0  0  0  0  0  0  0  0  0  0  0
  -18.7489   -4.7219    0.5325 H   0  0  0  0  0  0  0  0  0  0  0  0
  -18.2200   -5.7705   -1.5879 H   0  0  0  0  0  0  0  0  0  0  0  0
  -16.4193   -5.2916   -1.2864 H   0  0  0  0  0  0  0  0  0  0  0  0
  1  2  2  0
  2  3  1  0
  3  4  2  0
  4  5  1  0
  5  6  2  0
  6  7  1  0
  7  8  2  0
  8  9  1  0
  9 10  2  0
 10 11  1  0
 11 12  2  0
 12 13  1  0
 13 14  2  0
 14 15  1  0
 15 16  2  0
 16 17  1  0
 17 18  2  0
 18 19  1  0
 19 20  2  0
 20 21  1  0
 21 22  2  0
 22 23  1  0
 23 24  2  0
 24 25  1  0
 25 26  2  0
 26 27  1  0
 27 28  2  0
 28 29  1  0
 29 30  2  0
 30 31  1  0
 31 32  2  0
 32 33  1  0
 33 34  2  0
 34 35  1  0
 35 36  2  0
 36 37  1  0
 37 38  2  0
 38 39  1  0
 39 40  2  0
 40 41  1  0
 41 42  2  0
 42 43  1  0
 43 44  2  0
 44 45  1  0
 45 46  2  0
  1 47  1  0
  1 48  1  0
  2 49  1  0
  3 50  1  0
  4 51  1  0
  5 52  1  0
  6 53  1  0
  7 54  1  0
  8 55  1  0
  9 56  1  0
 10 57  1  0
 11 58  1  0
 12 59  1  0
 13 60  1  0
 14 61  1  0
 15 62  1  0
 16 63  1  0
 17 64  1  0
 18 65  1  0
 19 66  1  0
 20 67  1  0
 21 68  1  0
 22 69  1  0
 23 70  1  0
 24 71  1  0
 25 72  1  0
 26 73  1  0
 27 74  1  0
 28 75  1  0
 29 76  1  0
 30 77  1  0
 31 78  1  0
 32 79  1  0
 33 80  1  0
 34 81  1  0
 35 82  1  0
 36 83  1  0
 37 84  1  0
 38 85  1  0
 39 86  1  0
 40 87  1  0
 41 88  1  0
 42 89  1  0
 43 90  1  0
 44 91  1  0
 45 92  1  0
 46 93  1  0
 46 94  1  0
M  END

