
     RDKit          3D

 14 13  0  0  0  0  0  0  0  0999 V2000
    2.7969    0.9222    0.1090 C   0  0  0  0  0  0  0  0  0  0  0  0
    1.7579    0.4673   -0.6508 C   0  0  0  0  0  0  0  0  0  0  0  0
    0.5089    0.1334   -0.0152 C   0  0  0  0  0  0  0  0  0  0  0  0
   -0.5173   -0.1484    0.4592 C   0  0  0  0  0  0  0  0  0  0  0  0
   -1.7320   -0.4813    1.0249 C   0  0  0  0  0  0  0  0  0  0  0  0
   -2.7514   -0.9425    0.3494 C   0  0  0  0  0  0  0  0  0  0  0  0
    3.7185    1.1789   -0.3537 H   0  0  0  0  0  0  0  0  0  0  0  0
    2.6196    0.9620    1.1364 H   0  0  0  0  0  0  0  0  0  0  0  0
    1.9751    0.3894   -1.6972 H   0  0  0  0  0  0  0  0  0  0  0  0
   -0.0914   -0.1231   -1.3027 H   0  0  0  0  0  0  0  0  0  0  0  0
    0.0310    0.3088    1.7253 H   0  0  0  0  0  0  0  0  0  0  0  0
   -1.9548   -0.3894    2.0968 H   0  0  0  0  0  0  0  0  0  0  0  0
   -2.6337   -1.0734   -0.7321 H   0  0  0  0  0  0  0  0  0  0  0  0
   -3.7273   -1.2039    0.7653 H   0  0  0  0  0  0  0  0  0  0  0  0
  1  2  2  0
  2  3  1  0
  3  4  2  0
  4  5  1  0
  5  6  2  0
  1  7  1  0
  1  8  1  0
  2  9  1  0
  3 10  1  0
  4 11  1  0
  5 12  1  0
  6 13  1  0
  6 14  1  0
M  END

