
     RDKit          3D

 27 27  0  0  0  0  0  0  0  0999 V2000
   -1.9545    0.9642   -0.4783 C   0  0  0  0  0  0  0  0  0  0  0  0
   -0.6045    1.5587   -0.7420 C   0  0  0  0  0  0  0  0  0  0  0  0
    0.3103    1.5475    0.4296 C   0  0  0  0  0  0  0  0  0  0  0  0
    1.6776    1.0358    0.1929 C   0  0  0  0  0  0  0  0  0  0  0  0
    1.8128   -0.2794   -0.4721 C   0  0  0  0  0  0  0  0  0  0  0  0
    1.4869   -1.4719    0.3417 C   0  0  0  0  0  0  0  0  0  0  0  0
    0.0916   -1.7120    0.7222 C   0  0  0  0  0  0  0  0  0  0  0  0
   -0.9629   -1.3335   -0.2531 C   0  0  0  0  0  0  0  0  0  0  0  0
   -1.9468   -0.3122    0.2881 C   0  0  0  0  0  0  0  0  0  0  0  0
   -2.5812    1.6892    0.0543 H   0  0  0  0  0  0  0  0  0  0  0  0
   -2.4403    0.7686   -1.4615 H   0  0  0  0  0  0  0  0  0  0  0  0
   -0.1196    1.0735   -1.6227 H   0  0  0  0  0  0  0  0  0  0  0  0
   -0.7996    2.6161   -1.0979 H   0  0  0  0  0  0  0  0  0  0  0  0
    0.4276    2.6166    0.7868 H   0  0  0  0  0  0  0  0  0  0  0  0
   -0.1632    1.0443    1.3124 H   0  0  0  0  0  0  0  0  0  0  0  0
    2.2173    1.7948   -0.4480 H   0  0  0  0  0  0  0  0  0  0  0  0
    2.2220    1.0062    1.1496 H   0  0  0  0  0  0  0  0  0  0  0  0
    1.3707   -0.3056   -1.5040 H   0  0  0  0  0  0  0  0  0  0  0  0
    2.9252   -0.3760   -0.6983 H   0  0  0  0  0  0  0  0  0  0  0  0
    1.9137   -2.3675   -0.2015 H   0  0  0  0  0  0  0  0  0  0  0  0
    2.1098   -1.4149    1.2777 H   0  0  0  0  0  0  0  0  0  0  0  0
   -0.1094   -1.3082    1.7600 H   0  0  0  0  0  0  0  0  0  0  0  0
   -0.0028   -2.8309    0.8902 H   0  0  0  0  0  0  0  0  0  0  0  0
   -1.5382   -2.2293   -0.6389 H   0  0  0  0  0  0  0  0  0  0  0  0
   -0.5584   -0.8734   -1.2025 H   0  0  0  0  0  0  0  0  0  0  0  0
   -2.9827   -0.7350    0.2179 H   0  0  0  0  0  0  0  0  0  0  0  0
   -1.8015   -0.1656    1.3976 H   0  0  0  0  0  0  0  0  0  0  0  0
  1  2  1  0
  2  3  1  0
  3  4  1  0
  4  5  1  0
  5  6  1  0
  6  7  1  0
  7  8  1  0
  8  9  1  0
  9  1  1  0
  1 10  1  0
  1 11  1  0
  2 12  1  0
  2 13  1  0
  3 14  1  0
  3 15  1  0
  4 16  1  0
  4 17  1  0
  5 18  1  0
  5 19  1  0
  6 20  1  0
  6 21  1  0
  7 22  1  0
  7 23  1  0
  8 24  1  0
  8 25  1  0
  9 26  1  0
  9 27  1  0
M  END

