
     RDKit          3D

 18 18  0  0  0  0  0  0  0  0999 V2000
   -0.1359    1.4560   -0.0837 C   0  0  0  0  0  0  0  0  0  0  0  0
   -1.2587    0.5513    0.3270 C   0  0  0  0  0  0  0  0  0  0  0  0
   -1.1856   -0.8122   -0.3158 C   0  0  0  0  0  0  0  0  0  0  0  0
    0.1142   -1.4507    0.1772 C   0  0  0  0  0  0  0  0  0  0  0  0
    1.2384   -0.6243   -0.3967 C   0  0  0  0  0  0  0  0  0  0  0  0
    1.1965    0.7809    0.1230 C   0  0  0  0  0  0  0  0  0  0  0  0
   -0.2247    1.8535   -1.1018 H   0  0  0  0  0  0  0  0  0  0  0  0
   -0.1533    2.3296    0.6247 H   0  0  0  0  0  0  0  0  0  0  0  0
   -2.2315    1.0483    0.1870 H   0  0  0  0  0  0  0  0  0  0  0  0
   -1.1480    0.3809    1.4330 H   0  0  0  0  0  0  0  0  0  0  0  0
   -2.0039   -1.4209    0.1549 H   0  0  0  0  0  0  0  0  0  0  0  0
   -1.2478   -0.7870   -1.4091 H   0  0  0  0  0  0  0  0  0  0  0  0
    0.0648   -1.3818    1.2923 H   0  0  0  0  0  0  0  0  0  0  0  0
    0.2069   -2.4961   -0.1050 H   0  0  0  0  0  0  0  0  0  0  0  0
    2.1808   -1.0848   -0.0923 H   0  0  0  0  0  0  0  0  0  0  0  0
    1.0865   -0.5780   -1.4949 H   0  0  0  0  0  0  0  0  0  0  0  0
    1.5614    0.8659    1.1689 H   0  0  0  0  0  0  0  0  0  0  0  0
    1.9398    1.3693   -0.4887 H   0  0  0  0  0  0  0  0  0  0  0  0
  1  2  1  0
  2  3  1  0
  3  4  1  0
  4  5  1  0
  5  6  1  0
  6  1  1  0
  1  7  1  0
  1  8  1  0
  2  9  1  0
  2 10  1  0
  3 11  1  0
  3 12  1  0
  4 13  1  0
  4 14  1  0
  5 15  1  0
  5 16  1  0
  6 17  1  0
  6 18  1  0
M  END

