
     RDKit          3D

 12 12  0  0  0  0  0  0  0  0999 V2000
    0.9999    0.3094   -0.2171 C   0  0  0  0  0  0  0  0  0  0  0  0
    0.3409   -0.8789    0.4838 C   0  0  0  0  0  0  0  0  0  0  0  0
   -0.9677   -0.4289   -0.1718 C   0  0  0  0  0  0  0  0  0  0  0  0
   -0.3727    0.9821   -0.0887 C   0  0  0  0  0  0  0  0  0  0  0  0
    1.2100    0.1360   -1.2970 H   0  0  0  0  0  0  0  0  0  0  0  0
    1.7995    0.7806    0.3570 H   0  0  0  0  0  0  0  0  0  0  0  0
    0.6674   -1.8601    0.1509 H   0  0  0  0  0  0  0  0  0  0  0  0
    0.3548   -0.6798    1.5759 H   0  0  0  0  0  0  0  0  0  0  0  0
   -1.0167   -0.7719   -1.2175 H   0  0  0  0  0  0  0  0  0  0  0  0
   -1.8529   -0.5923    0.4460 H   0  0  0  0  0  0  0  0  0  0  0  0
   -0.5761    1.6229   -0.9408 H   0  0  0  0  0  0  0  0  0  0  0  0
   -0.5864    1.3809    0.9193 H   0  0  0  0  0  0  0  0  0  0  0  0
  1  2  1  0
  2  3  1  0
  3  4  1  0
  4  1  1  0
  1  5  1  0
  1  6  1  0
  2  7  1  0
  2  8  1  0
  3  9  1  0
  3 10  1  0
  4 11  1  0
  4 12  1  0
M  END

