
     RDKit          3D

 39 39  0  0  0  0  0  0  0  0999 V2000
   -1.9302   -1.6305    0.3620 C   0  0  0  0  0  0  0  0  0  0  0  0
   -2.6853   -0.3267    0.0615 C   0  0  0  0  0  0  0  0  0  0  0  0
   -1.7315    0.7879    0.4352 C   0  0  0  0  0  0  0  0  0  0  0  0
   -2.1062    2.1238   -0.0843 C   0  0  0  0  0  0  0  0  0  0  0  0
   -0.8502    2.8754   -0.4821 C   0  0  0  0  0  0  0  0  0  0  0  0
    0.3419    2.4942    0.3591 C   0  0  0  0  0  0  0  0  0  0  0  0
    1.4295    1.8282   -0.4407 C   0  0  0  0  0  0  0  0  0  0  0  0
    2.1727    0.7801    0.3490 C   0  0  0  0  0  0  0  0  0  0  0  0
    2.4684   -0.4457   -0.4983 C   0  0  0  0  0  0  0  0  0  0  0  0
    2.4506   -1.6820    0.3747 C   0  0  0  0  0  0  0  0  0  0  0  0
    1.0617   -2.0577    0.8164 C   0  0  0  0  0  0  0  0  0  0  0  0
    0.2504   -2.7508   -0.2228 C   0  0  0  0  0  0  0  0  0  0  0  0
   -0.9488   -1.9668   -0.7093 C   0  0  0  0  0  0  0  0  0  0  0  0
   -2.6906   -2.4506    0.5201 H   0  0  0  0  0  0  0  0  0  0  0  0
   -1.4448   -1.5016    1.3513 H   0  0  0  0  0  0  0  0  0  0  0  0
   -3.5886   -0.3318    0.7062 H   0  0  0  0  0  0  0  0  0  0  0  0
   -2.9976   -0.2861   -0.9990 H   0  0  0  0  0  0  0  0  0  0  0  0
   -1.6016    0.7511    1.5324 H   0  0  0  0  0  0  0  0  0  0  0  0
   -0.7705    0.4946   -0.0837 H   0  0  0  0  0  0  0  0  0  0  0  0
   -2.5855    2.7104    0.7269 H   0  0  0  0  0  0  0  0  0  0  0  0
   -2.7976    2.0722   -0.9738 H   0  0  0  0  0  0  0  0  0  0  0  0
   -0.6329    2.6099   -1.5383 H   0  0  0  0  0  0  0  0  0  0  0  0
   -1.0696    3.9613   -0.4498 H   0  0  0  0  0  0  0  0  0  0  0  0
    0.7621    3.4431    0.7607 H   0  0  0  0  0  0  0  0  0  0  0  0
    0.0526    1.9068    1.2578 H   0  0  0  0  0  0  0  0  0  0  0  0
    1.0352    1.3689   -1.3938 H   0  0  0  0  0  0  0  0  0  0  0  0
    2.1406    2.6058   -0.7905 H   0  0  0  0  0  0  0  0  0  0  0  0
    3.1879    1.1977    0.6192 H   0  0  0  0  0  0  0  0  0  0  0  0
    1.6981    0.5386    1.3092 H   0  0  0  0  0  0  0  0  0  0  0  0
    3.4587   -0.3747   -0.9915 H   0  0  0  0  0  0  0  0  0  0  0  0
    1.6674   -0.5770   -1.2634 H   0  0  0  0  0  0  0  0  0  0  0  0
    2.9800   -2.5230   -0.1136 H   0  0  0  0  0  0  0  0  0  0  0  0
    3.0254   -1.4203    1.2972 H   0  0  0  0  0  0  0  0  0  0  0  0
    1.0971   -2.6443    1.7824 H   0  0  0  0  0  0  0  0  0  0  0  0
    0.5394   -1.1222    1.0882 H   0  0  0  0  0  0  0  0  0  0  0  0
   -0.1243   -3.7310    0.1446 H   0  0  0  0  0  0  0  0  0  0  0  0
    0.8860   -2.9565   -1.1055 H   0  0  0  0  0  0  0  0  0  0  0  0
   -1.4826   -2.6673   -1.4191 H   0  0  0  0  0  0  0  0  0  0  0  0
   -0.6673   -1.1032   -1.3451 H   0  0  0  0  0  0  0  0  0  0  0  0
  1  2  1  0
  2  3  1  0
  3  4  1  0
  4  5  1  0
  5  6  1  0
  6  7  1  0
  7  8  1  0
  8  9  1  0
  9 10  1  0
 10 11  1  0
 11 12  1  0
 12 13  1  0
 13  1  1  0
  1 14  1  0
  1 15  1  0
  2 16  1  0
  2 17  1  0
  3 18  1  0
  3 19  1  0
  4 20  1  0
  4 21  1  0
  5 22  1  0
  5 23  1  0
  6 24  1  0
  6 25  1  0
  7 26  1  0
  7 27  1  0
  8 28  1  0
  8 29  1  0
  9 30  1  0
  9 31  1  0
 10 32  1  0
 10 33  1  0
 11 34  1  0
 11 35  1  0
 12 36  1  0
 12 37  1  0
 13 38  1  0
 13 39  1  0
M  END

